version 2
run General-34-20170829-17:49:00-8100
attr configname General
attr datetime 20170829-17:49:00
attr density 400
attr experiment General
attr inifile omnetpp.ini
attr iterationvars $density=400
attr iterationvars2 "$density=400, $repetition=4"
attr measurement $density=400
attr network com.liborio.pi.MyScenario
attr processid 8100
attr repetition 4
attr replication #4
attr resultdir results
attr runnumber 34
attr seedset 4
param **.coreDebug false
param **.debug false
param *.**.nic.mac1609_4.bitrate 6Mbps
param *.**.nic.mac1609_4.txPower 20mW
param *.**.nic.mac1609_4.useServiceChannel true
param *.**.nic.phy80211p.analogueModels "xmldoc(\"config.xml\")"
param *.**.nic.phy80211p.antenna "xmldoc(\"antenna.xml\", \"/root/Antenna[@id='monopole']\")"
param *.**.nic.phy80211p.decider "xmldoc(\"config.xml\")"
param *.**.nic.phy80211p.sensitivity -84.39dBm
param *.**.nic.phy80211p.thermalNoise -110dBm
param *.**.nic.phy80211p.usePropagationDelay true
param *.**.nic.phy80211p.useThermalNoise true
param *.annotations.draw true
param *.connectionManager.drawMaxIntfDist false
param *.connectionManager.maxInterfDist 2600m
param *.connectionManager.sendDirect true
param *.manager.autoShutdown true
param *.manager.host "\"localhost\""
param *.manager.launchConfig "xmldoc(string(${density = 100, 200, 300, 400})+\"_\"+ string(${repetition})+\".launchd.xml\")"
param *.manager.port 9999
param *.manager.updateInterval 1s
param *.node[*].appl.beaconInterval 1s
param *.node[*].appl.dataOnSch true
param *.node[*].appl.headerLength "80 bit"
param *.node[*].appl.isSource false
param *.node[*].appl.numMsgs 100
param *.node[*].appl.sendBeacons false
param *.node[*].appl.stopTrafficTime 130s
param *.node[*].appl.wsmInterval 3s
param *.node[*].applType "\"Flooding\""
param *.node[*].veinsmobility.x 0
param *.node[*].veinsmobility.y 0
param *.node[*].veinsmobility.z 1.895
param *.node[*].veinsmobilityType.debug true
param *.node[0].appl.isSource true
param *.playgroundSizeX 2500m
param *.playgroundSizeY 2500m
param *.playgroundSizeZ 50m

scalar . 	density 	400
scalar MyScenario.node[188].appl 	generatedWSMs 	1
scalar MyScenario.node[188].appl 	receivedWSMs 	1
scalar MyScenario.node[188].appl 	generatedBSMs 	0
scalar MyScenario.node[188].appl 	receivedBSMs 	0
scalar MyScenario.node[188].appl 	generatedWSAs 	0
scalar MyScenario.node[188].appl 	receivedWSAs 	0
scalar MyScenario.node[188].nic.phy80211p 	busyTime 	0.0005104
scalar MyScenario.node[188].nic.mac1609_4 	ReceivedUnicastPackets 	0
scalar MyScenario.node[188].nic.mac1609_4 	ReceivedBroadcasts 	1
scalar MyScenario.node[188].nic.mac1609_4 	SentPackets 	1
scalar MyScenario.node[188].nic.mac1609_4 	SNIRLostPackets 	21
scalar MyScenario.node[188].nic.mac1609_4 	RXTXLostPackets 	2
scalar MyScenario.node[188].nic.mac1609_4 	TotalLostPackets 	23
scalar MyScenario.node[188].nic.mac1609_4 	DroppedPacketsInMac 	0
scalar MyScenario.node[188].nic.mac1609_4 	TooLittleTime 	0
scalar MyScenario.node[188].nic.mac1609_4 	TimesIntoBackoff 	1
scalar MyScenario.node[188].nic.mac1609_4 	SlotsBackoff 	2
scalar MyScenario.node[188].nic.mac1609_4 	NumInternalContention 	0
scalar MyScenario.node[188].nic.mac1609_4 	totalBusyTime 	0.001857045329
scalar MyScenario.node[188].veinsmobility 	startTime 	1
scalar MyScenario.node[188].veinsmobility 	totalTime 	9
scalar MyScenario.node[188].veinsmobility 	stopTime 	11
scalar MyScenario.node[188].veinsmobility 	minSpeed 	2.026237397315
scalar MyScenario.node[188].veinsmobility 	maxSpeed 	13.773288493115
scalar MyScenario.node[188].veinsmobility 	totalDistance 	83.830293854186
scalar MyScenario.node[188].veinsmobility 	totalCO2Emission 	38.380783792523
scalar MyScenario.node[231].appl 	generatedWSMs 	0
scalar MyScenario.node[231].appl 	receivedWSMs 	0
scalar MyScenario.node[231].appl 	generatedBSMs 	0
scalar MyScenario.node[231].appl 	receivedBSMs 	0
scalar MyScenario.node[231].appl 	generatedWSAs 	0
scalar MyScenario.node[231].appl 	receivedWSAs 	0
scalar MyScenario.node[231].nic.phy80211p 	busyTime 	0
scalar MyScenario.node[231].nic.mac1609_4 	ReceivedUnicastPackets 	0
scalar MyScenario.node[231].nic.mac1609_4 	ReceivedBroadcasts 	0
scalar MyScenario.node[231].nic.mac1609_4 	SentPackets 	0
scalar MyScenario.node[231].nic.mac1609_4 	SNIRLostPackets 	0
scalar MyScenario.node[231].nic.mac1609_4 	RXTXLostPackets 	0
scalar MyScenario.node[231].nic.mac1609_4 	TotalLostPackets 	0
scalar MyScenario.node[231].nic.mac1609_4 	DroppedPacketsInMac 	0
scalar MyScenario.node[231].nic.mac1609_4 	TooLittleTime 	0
scalar MyScenario.node[231].nic.mac1609_4 	TimesIntoBackoff 	0
scalar MyScenario.node[231].nic.mac1609_4 	SlotsBackoff 	0
scalar MyScenario.node[231].nic.mac1609_4 	NumInternalContention 	0
scalar MyScenario.node[231].nic.mac1609_4 	totalBusyTime 	0
scalar MyScenario.node[231].veinsmobility 	startTime 	1
scalar MyScenario.node[231].veinsmobility 	totalTime 	9
scalar MyScenario.node[231].veinsmobility 	stopTime 	11
scalar MyScenario.node[231].veinsmobility 	minSpeed 	1.951477835211
scalar MyScenario.node[231].veinsmobility 	maxSpeed 	13.754040918848
scalar MyScenario.node[231].veinsmobility 	totalDistance 	82.981233535963
scalar MyScenario.node[231].veinsmobility 	totalCO2Emission 	37.902213522909
scalar MyScenario.node[10].appl 	generatedWSMs 	0
scalar MyScenario.node[10].appl 	receivedWSMs 	0
scalar MyScenario.node[10].appl 	generatedBSMs 	0
scalar MyScenario.node[10].appl 	receivedBSMs 	0
scalar MyScenario.node[10].appl 	generatedWSAs 	0
scalar MyScenario.node[10].appl 	receivedWSAs 	0
scalar MyScenario.node[10].nic.phy80211p 	busyTime 	0
scalar MyScenario.node[10].nic.mac1609_4 	ReceivedUnicastPackets 	0
scalar MyScenario.node[10].nic.mac1609_4 	ReceivedBroadcasts 	0
scalar MyScenario.node[10].nic.mac1609_4 	SentPackets 	0
scalar MyScenario.node[10].nic.mac1609_4 	SNIRLostPackets 	0
scalar MyScenario.node[10].nic.mac1609_4 	RXTXLostPackets 	0
scalar MyScenario.node[10].nic.mac1609_4 	TotalLostPackets 	0
scalar MyScenario.node[10].nic.mac1609_4 	DroppedPacketsInMac 	0
scalar MyScenario.node[10].nic.mac1609_4 	TooLittleTime 	0
scalar MyScenario.node[10].nic.mac1609_4 	TimesIntoBackoff 	0
scalar MyScenario.node[10].nic.mac1609_4 	SlotsBackoff 	0
scalar MyScenario.node[10].nic.mac1609_4 	NumInternalContention 	0
scalar MyScenario.node[10].nic.mac1609_4 	totalBusyTime 	0
scalar MyScenario.node[10].veinsmobility 	startTime 	1
scalar MyScenario.node[10].veinsmobility 	totalTime 	9
scalar MyScenario.node[10].veinsmobility 	stopTime 	11
scalar MyScenario.node[10].veinsmobility 	minSpeed 	2.0868747266941
scalar MyScenario.node[10].veinsmobility 	maxSpeed 	13.695749708405
scalar MyScenario.node[10].veinsmobility 	totalDistance 	80.512414113362
scalar MyScenario.node[10].veinsmobility 	totalCO2Emission 	37.219729736332
scalar MyScenario.node[146].appl 	generatedWSMs 	0
scalar MyScenario.node[146].appl 	receivedWSMs 	0
scalar MyScenario.node[146].appl 	generatedBSMs 	0
scalar MyScenario.node[146].appl 	receivedBSMs 	0
scalar MyScenario.node[146].appl 	generatedWSAs 	0
scalar MyScenario.node[146].appl 	receivedWSAs 	0
scalar MyScenario.node[146].nic.phy80211p 	busyTime 	6.3272727272727e-05
scalar MyScenario.node[146].nic.mac1609_4 	ReceivedUnicastPackets 	0
scalar MyScenario.node[146].nic.mac1609_4 	ReceivedBroadcasts 	0
scalar MyScenario.node[146].nic.mac1609_4 	SentPackets 	0
scalar MyScenario.node[146].nic.mac1609_4 	SNIRLostPackets 	3
scalar MyScenario.node[146].nic.mac1609_4 	RXTXLostPackets 	0
scalar MyScenario.node[146].nic.mac1609_4 	TotalLostPackets 	3
scalar MyScenario.node[146].nic.mac1609_4 	DroppedPacketsInMac 	0
scalar MyScenario.node[146].nic.mac1609_4 	TooLittleTime 	0
scalar MyScenario.node[146].nic.mac1609_4 	TimesIntoBackoff 	0
scalar MyScenario.node[146].nic.mac1609_4 	SlotsBackoff 	0
scalar MyScenario.node[146].nic.mac1609_4 	NumInternalContention 	0
scalar MyScenario.node[146].nic.mac1609_4 	totalBusyTime 	0.000232
scalar MyScenario.node[146].veinsmobility 	startTime 	1
scalar MyScenario.node[146].veinsmobility 	totalTime 	10
scalar MyScenario.node[146].veinsmobility 	stopTime 	12
scalar MyScenario.node[146].veinsmobility 	minSpeed 	2.2593747106614
scalar MyScenario.node[146].veinsmobility 	maxSpeed 	13.878847435722
scalar MyScenario.node[146].veinsmobility 	totalDistance 	93.450016539807
scalar MyScenario.node[146].veinsmobility 	totalCO2Emission 	40.467727306539
scalar MyScenario.node[23].appl 	generatedWSMs 	0
scalar MyScenario.node[23].appl 	receivedWSMs 	0
scalar MyScenario.node[23].appl 	generatedBSMs 	0
scalar MyScenario.node[23].appl 	receivedBSMs 	0
scalar MyScenario.node[23].appl 	generatedWSAs 	0
scalar MyScenario.node[23].appl 	receivedWSAs 	0
scalar MyScenario.node[23].nic.phy80211p 	busyTime 	0
scalar MyScenario.node[23].nic.mac1609_4 	ReceivedUnicastPackets 	0
scalar MyScenario.node[23].nic.mac1609_4 	ReceivedBroadcasts 	0
scalar MyScenario.node[23].nic.mac1609_4 	SentPackets 	0
scalar MyScenario.node[23].nic.mac1609_4 	SNIRLostPackets 	0
scalar MyScenario.node[23].nic.mac1609_4 	RXTXLostPackets 	0
scalar MyScenario.node[23].nic.mac1609_4 	TotalLostPackets 	0
scalar MyScenario.node[23].nic.mac1609_4 	DroppedPacketsInMac 	0
scalar MyScenario.node[23].nic.mac1609_4 	TooLittleTime 	0
scalar MyScenario.node[23].nic.mac1609_4 	TimesIntoBackoff 	0
scalar MyScenario.node[23].nic.mac1609_4 	SlotsBackoff 	0
scalar MyScenario.node[23].nic.mac1609_4 	NumInternalContention 	0
scalar MyScenario.node[23].nic.mac1609_4 	totalBusyTime 	0
scalar MyScenario.node[23].veinsmobility 	startTime 	1
scalar MyScenario.node[23].veinsmobility 	totalTime 	10
scalar MyScenario.node[23].veinsmobility 	stopTime 	12
scalar MyScenario.node[23].veinsmobility 	minSpeed 	1.9495877373498
scalar MyScenario.node[23].veinsmobility 	maxSpeed 	13.800696363603
scalar MyScenario.node[23].veinsmobility 	totalDistance 	92.559950552165
scalar MyScenario.node[23].veinsmobility 	totalCO2Emission 	42.848137212647
scalar MyScenario.node[31].appl 	generatedWSMs 	0
scalar MyScenario.node[31].appl 	receivedWSMs 	0
scalar MyScenario.node[31].appl 	generatedBSMs 	0
scalar MyScenario.node[31].appl 	receivedBSMs 	0
scalar MyScenario.node[31].appl 	generatedWSAs 	0
scalar MyScenario.node[31].appl 	receivedWSAs 	0
scalar MyScenario.node[31].nic.phy80211p 	busyTime 	0
scalar MyScenario.node[31].nic.mac1609_4 	ReceivedUnicastPackets 	0
scalar MyScenario.node[31].nic.mac1609_4 	ReceivedBroadcasts 	0
scalar MyScenario.node[31].nic.mac1609_4 	SentPackets 	0
scalar MyScenario.node[31].nic.mac1609_4 	SNIRLostPackets 	0
scalar MyScenario.node[31].nic.mac1609_4 	RXTXLostPackets 	0
scalar MyScenario.node[31].nic.mac1609_4 	TotalLostPackets 	0
scalar MyScenario.node[31].nic.mac1609_4 	DroppedPacketsInMac 	0
scalar MyScenario.node[31].nic.mac1609_4 	TooLittleTime 	0
scalar MyScenario.node[31].nic.mac1609_4 	TimesIntoBackoff 	0
scalar MyScenario.node[31].nic.mac1609_4 	SlotsBackoff 	0
scalar MyScenario.node[31].nic.mac1609_4 	NumInternalContention 	0
scalar MyScenario.node[31].nic.mac1609_4 	totalBusyTime 	0
scalar MyScenario.node[31].veinsmobility 	startTime 	1
scalar MyScenario.node[31].veinsmobility 	totalTime 	10
scalar MyScenario.node[31].veinsmobility 	stopTime 	12
scalar MyScenario.node[31].veinsmobility 	minSpeed 	1.6154515504837
scalar MyScenario.node[31].veinsmobility 	maxSpeed 	13.892854375578
scalar MyScenario.node[31].veinsmobility 	totalDistance 	93.344484501771
scalar MyScenario.node[31].veinsmobility 	totalCO2Emission 	41.407852166577
scalar MyScenario.node[256].appl 	generatedWSMs 	0
scalar MyScenario.node[256].appl 	receivedWSMs 	0
scalar MyScenario.node[256].appl 	generatedBSMs 	0
scalar MyScenario.node[256].appl 	receivedBSMs 	0
scalar MyScenario.node[256].appl 	generatedWSAs 	0
scalar MyScenario.node[256].appl 	receivedWSAs 	0
scalar MyScenario.node[256].nic.phy80211p 	busyTime 	6.96e-05
scalar MyScenario.node[256].nic.mac1609_4 	ReceivedUnicastPackets 	0
scalar MyScenario.node[256].nic.mac1609_4 	ReceivedBroadcasts 	0
scalar MyScenario.node[256].nic.mac1609_4 	SentPackets 	0
scalar MyScenario.node[256].nic.mac1609_4 	SNIRLostPackets 	3
scalar MyScenario.node[256].nic.mac1609_4 	RXTXLostPackets 	0
scalar MyScenario.node[256].nic.mac1609_4 	TotalLostPackets 	3
scalar MyScenario.node[256].nic.mac1609_4 	DroppedPacketsInMac 	0
scalar MyScenario.node[256].nic.mac1609_4 	TooLittleTime 	0
scalar MyScenario.node[256].nic.mac1609_4 	TimesIntoBackoff 	0
scalar MyScenario.node[256].nic.mac1609_4 	SlotsBackoff 	0
scalar MyScenario.node[256].nic.mac1609_4 	NumInternalContention 	0
scalar MyScenario.node[256].nic.mac1609_4 	totalBusyTime 	0.000232
scalar MyScenario.node[256].veinsmobility 	startTime 	4
scalar MyScenario.node[256].veinsmobility 	totalTime 	9
scalar MyScenario.node[256].veinsmobility 	stopTime 	14
scalar MyScenario.node[256].veinsmobility 	minSpeed 	2.4877565426985
scalar MyScenario.node[256].veinsmobility 	maxSpeed 	13.034768739692
scalar MyScenario.node[256].veinsmobility 	totalDistance 	76.622444478748
scalar MyScenario.node[256].veinsmobility 	totalCO2Emission 	34.339565911824
scalar MyScenario.node[276].appl 	generatedWSMs 	0
scalar MyScenario.node[276].appl 	receivedWSMs 	0
scalar MyScenario.node[276].appl 	generatedBSMs 	0
scalar MyScenario.node[276].appl 	receivedBSMs 	0
scalar MyScenario.node[276].appl 	generatedWSAs 	0
scalar MyScenario.node[276].appl 	receivedWSAs 	0
scalar MyScenario.node[276].nic.phy80211p 	busyTime 	0
scalar MyScenario.node[276].nic.mac1609_4 	ReceivedUnicastPackets 	0
scalar MyScenario.node[276].nic.mac1609_4 	ReceivedBroadcasts 	0
scalar MyScenario.node[276].nic.mac1609_4 	SentPackets 	0
scalar MyScenario.node[276].nic.mac1609_4 	SNIRLostPackets 	0
scalar MyScenario.node[276].nic.mac1609_4 	RXTXLostPackets 	0
scalar MyScenario.node[276].nic.mac1609_4 	TotalLostPackets 	0
scalar MyScenario.node[276].nic.mac1609_4 	DroppedPacketsInMac 	0
scalar MyScenario.node[276].nic.mac1609_4 	TooLittleTime 	0
scalar MyScenario.node[276].nic.mac1609_4 	TimesIntoBackoff 	0
scalar MyScenario.node[276].nic.mac1609_4 	SlotsBackoff 	0
scalar MyScenario.node[276].nic.mac1609_4 	NumInternalContention 	0
scalar MyScenario.node[276].nic.mac1609_4 	totalBusyTime 	0
scalar MyScenario.node[276].veinsmobility 	startTime 	4
scalar MyScenario.node[276].veinsmobility 	totalTime 	10
scalar MyScenario.node[276].veinsmobility 	stopTime 	15
scalar MyScenario.node[276].veinsmobility 	minSpeed 	1.4558859044826
scalar MyScenario.node[276].veinsmobility 	maxSpeed 	13.69625130822
scalar MyScenario.node[276].veinsmobility 	totalDistance 	91.454842403757
scalar MyScenario.node[276].veinsmobility 	totalCO2Emission 	42.136233755147
scalar MyScenario.node[234].appl 	generatedWSMs 	0
scalar MyScenario.node[234].appl 	receivedWSMs 	0
scalar MyScenario.node[234].appl 	generatedBSMs 	0
scalar MyScenario.node[234].appl 	receivedBSMs 	0
scalar MyScenario.node[234].appl 	generatedWSAs 	0
scalar MyScenario.node[234].appl 	receivedWSAs 	0
scalar MyScenario.node[234].nic.phy80211p 	busyTime 	0.00021911111111111
scalar MyScenario.node[234].nic.mac1609_4 	ReceivedUnicastPackets 	0
scalar MyScenario.node[234].nic.mac1609_4 	ReceivedBroadcasts 	0
scalar MyScenario.node[234].nic.mac1609_4 	SentPackets 	0
scalar MyScenario.node[234].nic.mac1609_4 	SNIRLostPackets 	17
scalar MyScenario.node[234].nic.mac1609_4 	RXTXLostPackets 	0
scalar MyScenario.node[234].nic.mac1609_4 	TotalLostPackets 	17
scalar MyScenario.node[234].nic.mac1609_4 	DroppedPacketsInMac 	0
scalar MyScenario.node[234].nic.mac1609_4 	TooLittleTime 	0
scalar MyScenario.node[234].nic.mac1609_4 	TimesIntoBackoff 	0
scalar MyScenario.node[234].nic.mac1609_4 	SlotsBackoff 	0
scalar MyScenario.node[234].nic.mac1609_4 	NumInternalContention 	0
scalar MyScenario.node[234].nic.mac1609_4 	totalBusyTime 	0.000928
scalar MyScenario.node[234].veinsmobility 	startTime 	1
scalar MyScenario.node[234].veinsmobility 	totalTime 	17
scalar MyScenario.node[234].veinsmobility 	stopTime 	19
scalar MyScenario.node[234].veinsmobility 	minSpeed 	1.7772395106964
scalar MyScenario.node[234].veinsmobility 	maxSpeed 	13.833457924263
scalar MyScenario.node[234].veinsmobility 	totalDistance 	184.78319031657
scalar MyScenario.node[234].veinsmobility 	totalCO2Emission 	59.609110874629
scalar MyScenario.node[125].appl 	generatedWSMs 	1
scalar MyScenario.node[125].appl 	receivedWSMs 	2
scalar MyScenario.node[125].appl 	generatedBSMs 	0
scalar MyScenario.node[125].appl 	receivedBSMs 	0
scalar MyScenario.node[125].appl 	generatedWSAs 	0
scalar MyScenario.node[125].appl 	receivedWSAs 	0
scalar MyScenario.node[125].nic.phy80211p 	busyTime 	0.00045111111111111
scalar MyScenario.node[125].nic.mac1609_4 	ReceivedUnicastPackets 	0
scalar MyScenario.node[125].nic.mac1609_4 	ReceivedBroadcasts 	2
scalar MyScenario.node[125].nic.mac1609_4 	SentPackets 	1
scalar MyScenario.node[125].nic.mac1609_4 	SNIRLostPackets 	33
scalar MyScenario.node[125].nic.mac1609_4 	RXTXLostPackets 	1
scalar MyScenario.node[125].nic.mac1609_4 	TotalLostPackets 	34
scalar MyScenario.node[125].nic.mac1609_4 	DroppedPacketsInMac 	0
scalar MyScenario.node[125].nic.mac1609_4 	TooLittleTime 	0
scalar MyScenario.node[125].nic.mac1609_4 	TimesIntoBackoff 	1
scalar MyScenario.node[125].nic.mac1609_4 	SlotsBackoff 	3
scalar MyScenario.node[125].nic.mac1609_4 	NumInternalContention 	0
scalar MyScenario.node[125].nic.mac1609_4 	totalBusyTime 	0.002321049343
scalar MyScenario.node[125].veinsmobility 	startTime 	1
scalar MyScenario.node[125].veinsmobility 	totalTime 	17
scalar MyScenario.node[125].veinsmobility 	stopTime 	19
scalar MyScenario.node[125].veinsmobility 	minSpeed 	1.6962741244817
scalar MyScenario.node[125].veinsmobility 	maxSpeed 	13.768884003581
scalar MyScenario.node[125].veinsmobility 	totalDistance 	181.78541859434
scalar MyScenario.node[125].veinsmobility 	totalCO2Emission 	55.482106201778
scalar MyScenario.node[35].appl 	generatedWSMs 	0
scalar MyScenario.node[35].appl 	receivedWSMs 	0
scalar MyScenario.node[35].appl 	generatedBSMs 	0
scalar MyScenario.node[35].appl 	receivedBSMs 	0
scalar MyScenario.node[35].appl 	generatedWSAs 	0
scalar MyScenario.node[35].appl 	receivedWSAs 	0
scalar MyScenario.node[35].nic.phy80211p 	busyTime 	0.0002668
scalar MyScenario.node[35].nic.mac1609_4 	ReceivedUnicastPackets 	0
scalar MyScenario.node[35].nic.mac1609_4 	ReceivedBroadcasts 	0
scalar MyScenario.node[35].nic.mac1609_4 	SentPackets 	0
scalar MyScenario.node[35].nic.mac1609_4 	SNIRLostPackets 	23
scalar MyScenario.node[35].nic.mac1609_4 	RXTXLostPackets 	0
scalar MyScenario.node[35].nic.mac1609_4 	TotalLostPackets 	23
scalar MyScenario.node[35].nic.mac1609_4 	DroppedPacketsInMac 	0
scalar MyScenario.node[35].nic.mac1609_4 	TooLittleTime 	0
scalar MyScenario.node[35].nic.mac1609_4 	TimesIntoBackoff 	0
scalar MyScenario.node[35].nic.mac1609_4 	SlotsBackoff 	0
scalar MyScenario.node[35].nic.mac1609_4 	NumInternalContention 	0
scalar MyScenario.node[35].nic.mac1609_4 	totalBusyTime 	0.00116
scalar MyScenario.node[35].veinsmobility 	startTime 	1
scalar MyScenario.node[35].veinsmobility 	totalTime 	19
scalar MyScenario.node[35].veinsmobility 	stopTime 	21
scalar MyScenario.node[35].veinsmobility 	minSpeed 	2.0565801601624
scalar MyScenario.node[35].veinsmobility 	maxSpeed 	13.76254965798
scalar MyScenario.node[35].veinsmobility 	totalDistance 	182.09535148004
scalar MyScenario.node[35].veinsmobility 	totalCO2Emission 	66.395299646404
scalar MyScenario.node[205].appl 	generatedWSMs 	0
scalar MyScenario.node[205].appl 	receivedWSMs 	0
scalar MyScenario.node[205].appl 	generatedBSMs 	0
scalar MyScenario.node[205].appl 	receivedBSMs 	0
scalar MyScenario.node[205].appl 	generatedWSAs 	0
scalar MyScenario.node[205].appl 	receivedWSAs 	0
scalar MyScenario.node[205].nic.phy80211p 	busyTime 	0.00020990476190476
scalar MyScenario.node[205].nic.mac1609_4 	ReceivedUnicastPackets 	0
scalar MyScenario.node[205].nic.mac1609_4 	ReceivedBroadcasts 	0
scalar MyScenario.node[205].nic.mac1609_4 	SentPackets 	0
scalar MyScenario.node[205].nic.mac1609_4 	SNIRLostPackets 	19
scalar MyScenario.node[205].nic.mac1609_4 	RXTXLostPackets 	0
scalar MyScenario.node[205].nic.mac1609_4 	TotalLostPackets 	19
scalar MyScenario.node[205].nic.mac1609_4 	DroppedPacketsInMac 	0
scalar MyScenario.node[205].nic.mac1609_4 	TooLittleTime 	0
scalar MyScenario.node[205].nic.mac1609_4 	TimesIntoBackoff 	0
scalar MyScenario.node[205].nic.mac1609_4 	SlotsBackoff 	0
scalar MyScenario.node[205].nic.mac1609_4 	NumInternalContention 	0
scalar MyScenario.node[205].nic.mac1609_4 	totalBusyTime 	0.000928
scalar MyScenario.node[205].veinsmobility 	startTime 	1
scalar MyScenario.node[205].veinsmobility 	totalTime 	20
scalar MyScenario.node[205].veinsmobility 	stopTime 	22
scalar MyScenario.node[205].veinsmobility 	minSpeed 	1.7913942312104
scalar MyScenario.node[205].veinsmobility 	maxSpeed 	13.839186224923
scalar MyScenario.node[205].veinsmobility 	totalDistance 	179.30357880964
scalar MyScenario.node[205].veinsmobility 	totalCO2Emission 	77.843439484611
scalar MyScenario.node[370].appl 	generatedWSMs 	0
scalar MyScenario.node[370].appl 	receivedWSMs 	0
scalar MyScenario.node[370].appl 	generatedBSMs 	0
scalar MyScenario.node[370].appl 	receivedBSMs 	0
scalar MyScenario.node[370].appl 	generatedWSAs 	0
scalar MyScenario.node[370].appl 	receivedWSAs 	0
scalar MyScenario.node[370].nic.phy80211p 	busyTime 	0
scalar MyScenario.node[370].nic.mac1609_4 	ReceivedUnicastPackets 	0
scalar MyScenario.node[370].nic.mac1609_4 	ReceivedBroadcasts 	0
scalar MyScenario.node[370].nic.mac1609_4 	SentPackets 	0
scalar MyScenario.node[370].nic.mac1609_4 	SNIRLostPackets 	0
scalar MyScenario.node[370].nic.mac1609_4 	RXTXLostPackets 	0
scalar MyScenario.node[370].nic.mac1609_4 	TotalLostPackets 	0
scalar MyScenario.node[370].nic.mac1609_4 	DroppedPacketsInMac 	0
scalar MyScenario.node[370].nic.mac1609_4 	TooLittleTime 	0
scalar MyScenario.node[370].nic.mac1609_4 	TimesIntoBackoff 	0
scalar MyScenario.node[370].nic.mac1609_4 	SlotsBackoff 	0
scalar MyScenario.node[370].nic.mac1609_4 	NumInternalContention 	0
scalar MyScenario.node[370].nic.mac1609_4 	totalBusyTime 	0
scalar MyScenario.node[370].veinsmobility 	startTime 	7
scalar MyScenario.node[370].veinsmobility 	totalTime 	16
scalar MyScenario.node[370].veinsmobility 	stopTime 	24
scalar MyScenario.node[370].veinsmobility 	minSpeed 	1.9252650942421
scalar MyScenario.node[370].veinsmobility 	maxSpeed 	13.587844435289
scalar MyScenario.node[370].veinsmobility 	totalDistance 	168.20164133219
scalar MyScenario.node[370].veinsmobility 	totalCO2Emission 	52.077825548522
scalar MyScenario.node[376].appl 	generatedWSMs 	1
scalar MyScenario.node[376].appl 	receivedWSMs 	5
scalar MyScenario.node[376].appl 	generatedBSMs 	0
scalar MyScenario.node[376].appl 	receivedBSMs 	0
scalar MyScenario.node[376].appl 	generatedWSAs 	0
scalar MyScenario.node[376].appl 	receivedWSAs 	0
scalar MyScenario.node[376].nic.phy80211p 	busyTime 	0.00027294117647059
scalar MyScenario.node[376].nic.mac1609_4 	ReceivedUnicastPackets 	0
scalar MyScenario.node[376].nic.mac1609_4 	ReceivedBroadcasts 	5
scalar MyScenario.node[376].nic.mac1609_4 	SentPackets 	1
scalar MyScenario.node[376].nic.mac1609_4 	SNIRLostPackets 	15
scalar MyScenario.node[376].nic.mac1609_4 	RXTXLostPackets 	5
scalar MyScenario.node[376].nic.mac1609_4 	TotalLostPackets 	20
scalar MyScenario.node[376].nic.mac1609_4 	DroppedPacketsInMac 	0
scalar MyScenario.node[376].nic.mac1609_4 	TooLittleTime 	0
scalar MyScenario.node[376].nic.mac1609_4 	TimesIntoBackoff 	1
scalar MyScenario.node[376].nic.mac1609_4 	SlotsBackoff 	3
scalar MyScenario.node[376].nic.mac1609_4 	NumInternalContention 	0
scalar MyScenario.node[376].nic.mac1609_4 	totalBusyTime 	0.00232118352
scalar MyScenario.node[376].veinsmobility 	startTime 	7
scalar MyScenario.node[376].veinsmobility 	totalTime 	16
scalar MyScenario.node[376].veinsmobility 	stopTime 	24
scalar MyScenario.node[376].veinsmobility 	minSpeed 	1.5253203734988
scalar MyScenario.node[376].veinsmobility 	maxSpeed 	13.888462774153
scalar MyScenario.node[376].veinsmobility 	totalDistance 	173.92741787962
scalar MyScenario.node[376].veinsmobility 	totalCO2Emission 	52.15796420543
scalar MyScenario.node[137].appl 	generatedWSMs 	0
scalar MyScenario.node[137].appl 	receivedWSMs 	0
scalar MyScenario.node[137].appl 	generatedBSMs 	0
scalar MyScenario.node[137].appl 	receivedBSMs 	0
scalar MyScenario.node[137].appl 	generatedWSAs 	0
scalar MyScenario.node[137].appl 	receivedWSAs 	0
scalar MyScenario.node[137].nic.phy80211p 	busyTime 	0
scalar MyScenario.node[137].nic.mac1609_4 	ReceivedUnicastPackets 	0
scalar MyScenario.node[137].nic.mac1609_4 	ReceivedBroadcasts 	0
scalar MyScenario.node[137].nic.mac1609_4 	SentPackets 	0
scalar MyScenario.node[137].nic.mac1609_4 	SNIRLostPackets 	0
scalar MyScenario.node[137].nic.mac1609_4 	RXTXLostPackets 	0
scalar MyScenario.node[137].nic.mac1609_4 	TotalLostPackets 	0
scalar MyScenario.node[137].nic.mac1609_4 	DroppedPacketsInMac 	0
scalar MyScenario.node[137].nic.mac1609_4 	TooLittleTime 	0
scalar MyScenario.node[137].nic.mac1609_4 	TimesIntoBackoff 	0
scalar MyScenario.node[137].nic.mac1609_4 	SlotsBackoff 	0
scalar MyScenario.node[137].nic.mac1609_4 	NumInternalContention 	0
scalar MyScenario.node[137].nic.mac1609_4 	totalBusyTime 	0
scalar MyScenario.node[137].veinsmobility 	startTime 	1
scalar MyScenario.node[137].veinsmobility 	totalTime 	25
scalar MyScenario.node[137].veinsmobility 	stopTime 	27
scalar MyScenario.node[137].veinsmobility 	minSpeed 	1.9504110053182
scalar MyScenario.node[137].veinsmobility 	maxSpeed 	13.749004685949
scalar MyScenario.node[137].veinsmobility 	totalDistance 	274.0093450034
scalar MyScenario.node[137].veinsmobility 	totalCO2Emission 	79.595581874037
scalar MyScenario.node[81].appl 	generatedWSMs 	1
scalar MyScenario.node[81].appl 	receivedWSMs 	4
scalar MyScenario.node[81].appl 	generatedBSMs 	0
scalar MyScenario.node[81].appl 	receivedBSMs 	0
scalar MyScenario.node[81].appl 	generatedWSAs 	0
scalar MyScenario.node[81].appl 	receivedWSAs 	0
scalar MyScenario.node[81].nic.phy80211p 	busyTime 	0.00029446153846154
scalar MyScenario.node[81].nic.mac1609_4 	ReceivedUnicastPackets 	0
scalar MyScenario.node[81].nic.mac1609_4 	ReceivedBroadcasts 	4
scalar MyScenario.node[81].nic.mac1609_4 	SentPackets 	1
scalar MyScenario.node[81].nic.mac1609_4 	SNIRLostPackets 	29
scalar MyScenario.node[81].nic.mac1609_4 	RXTXLostPackets 	5
scalar MyScenario.node[81].nic.mac1609_4 	TotalLostPackets 	34
scalar MyScenario.node[81].nic.mac1609_4 	DroppedPacketsInMac 	0
scalar MyScenario.node[81].nic.mac1609_4 	TooLittleTime 	0
scalar MyScenario.node[81].nic.mac1609_4 	TimesIntoBackoff 	1
scalar MyScenario.node[81].nic.mac1609_4 	SlotsBackoff 	2
scalar MyScenario.node[81].nic.mac1609_4 	NumInternalContention 	0
scalar MyScenario.node[81].nic.mac1609_4 	totalBusyTime 	0.003017
scalar MyScenario.node[81].veinsmobility 	startTime 	1
scalar MyScenario.node[81].veinsmobility 	totalTime 	25
scalar MyScenario.node[81].veinsmobility 	stopTime 	27
scalar MyScenario.node[81].veinsmobility 	minSpeed 	2.2210219959961
scalar MyScenario.node[81].veinsmobility 	maxSpeed 	13.824117177585
scalar MyScenario.node[81].veinsmobility 	totalDistance 	271.94830826675
scalar MyScenario.node[81].veinsmobility 	totalCO2Emission 	91.138555661724
scalar MyScenario.node[259].appl 	generatedWSMs 	0
scalar MyScenario.node[259].appl 	receivedWSMs 	0
scalar MyScenario.node[259].appl 	generatedBSMs 	0
scalar MyScenario.node[259].appl 	receivedBSMs 	0
scalar MyScenario.node[259].appl 	generatedWSAs 	0
scalar MyScenario.node[259].appl 	receivedWSAs 	0
scalar MyScenario.node[259].nic.phy80211p 	busyTime 	0
scalar MyScenario.node[259].nic.mac1609_4 	ReceivedUnicastPackets 	0
scalar MyScenario.node[259].nic.mac1609_4 	ReceivedBroadcasts 	0
scalar MyScenario.node[259].nic.mac1609_4 	SentPackets 	0
scalar MyScenario.node[259].nic.mac1609_4 	SNIRLostPackets 	0
scalar MyScenario.node[259].nic.mac1609_4 	RXTXLostPackets 	0
scalar MyScenario.node[259].nic.mac1609_4 	TotalLostPackets 	0
scalar MyScenario.node[259].nic.mac1609_4 	DroppedPacketsInMac 	0
scalar MyScenario.node[259].nic.mac1609_4 	TooLittleTime 	0
scalar MyScenario.node[259].nic.mac1609_4 	TimesIntoBackoff 	0
scalar MyScenario.node[259].nic.mac1609_4 	SlotsBackoff 	0
scalar MyScenario.node[259].nic.mac1609_4 	NumInternalContention 	0
scalar MyScenario.node[259].nic.mac1609_4 	totalBusyTime 	0
scalar MyScenario.node[259].veinsmobility 	startTime 	4
scalar MyScenario.node[259].veinsmobility 	totalTime 	27
scalar MyScenario.node[259].veinsmobility 	stopTime 	32
scalar MyScenario.node[259].veinsmobility 	minSpeed 	1.8646434355062
scalar MyScenario.node[259].veinsmobility 	maxSpeed 	13.729619502127
scalar MyScenario.node[259].veinsmobility 	totalDistance 	271.93905268505
scalar MyScenario.node[259].veinsmobility 	totalCO2Emission 	101.65219635702
scalar MyScenario.node[264].appl 	generatedWSMs 	0
scalar MyScenario.node[264].appl 	receivedWSMs 	0
scalar MyScenario.node[264].appl 	generatedBSMs 	0
scalar MyScenario.node[264].appl 	receivedBSMs 	0
scalar MyScenario.node[264].appl 	generatedWSAs 	0
scalar MyScenario.node[264].appl 	receivedWSAs 	0
scalar MyScenario.node[264].nic.phy80211p 	busyTime 	0
scalar MyScenario.node[264].nic.mac1609_4 	ReceivedUnicastPackets 	0
scalar MyScenario.node[264].nic.mac1609_4 	ReceivedBroadcasts 	0
scalar MyScenario.node[264].nic.mac1609_4 	SentPackets 	0
scalar MyScenario.node[264].nic.mac1609_4 	SNIRLostPackets 	0
scalar MyScenario.node[264].nic.mac1609_4 	RXTXLostPackets 	0
scalar MyScenario.node[264].nic.mac1609_4 	TotalLostPackets 	0
scalar MyScenario.node[264].nic.mac1609_4 	DroppedPacketsInMac 	0
scalar MyScenario.node[264].nic.mac1609_4 	TooLittleTime 	0
scalar MyScenario.node[264].nic.mac1609_4 	TimesIntoBackoff 	0
scalar MyScenario.node[264].nic.mac1609_4 	SlotsBackoff 	0
scalar MyScenario.node[264].nic.mac1609_4 	NumInternalContention 	0
scalar MyScenario.node[264].nic.mac1609_4 	totalBusyTime 	0
scalar MyScenario.node[264].veinsmobility 	startTime 	4
scalar MyScenario.node[264].veinsmobility 	totalTime 	31
scalar MyScenario.node[264].veinsmobility 	stopTime 	36
scalar MyScenario.node[264].veinsmobility 	minSpeed 	2.0858718778705
scalar MyScenario.node[264].veinsmobility 	maxSpeed 	13.864727351721
scalar MyScenario.node[264].veinsmobility 	totalDistance 	366.65469533722
scalar MyScenario.node[264].veinsmobility 	totalCO2Emission 	89.280019833863
scalar MyScenario.node[36].appl 	generatedWSMs 	0
scalar MyScenario.node[36].appl 	receivedWSMs 	0
scalar MyScenario.node[36].appl 	generatedBSMs 	0
scalar MyScenario.node[36].appl 	receivedBSMs 	0
scalar MyScenario.node[36].appl 	generatedWSAs 	0
scalar MyScenario.node[36].appl 	receivedWSAs 	0
scalar MyScenario.node[36].nic.phy80211p 	busyTime 	0
scalar MyScenario.node[36].nic.mac1609_4 	ReceivedUnicastPackets 	0
scalar MyScenario.node[36].nic.mac1609_4 	ReceivedBroadcasts 	0
scalar MyScenario.node[36].nic.mac1609_4 	SentPackets 	0
scalar MyScenario.node[36].nic.mac1609_4 	SNIRLostPackets 	0
scalar MyScenario.node[36].nic.mac1609_4 	RXTXLostPackets 	0
scalar MyScenario.node[36].nic.mac1609_4 	TotalLostPackets 	0
scalar MyScenario.node[36].nic.mac1609_4 	DroppedPacketsInMac 	0
scalar MyScenario.node[36].nic.mac1609_4 	TooLittleTime 	0
scalar MyScenario.node[36].nic.mac1609_4 	TimesIntoBackoff 	0
scalar MyScenario.node[36].nic.mac1609_4 	SlotsBackoff 	0
scalar MyScenario.node[36].nic.mac1609_4 	NumInternalContention 	0
scalar MyScenario.node[36].nic.mac1609_4 	totalBusyTime 	0
scalar MyScenario.node[36].veinsmobility 	startTime 	1
scalar MyScenario.node[36].veinsmobility 	totalTime 	34
scalar MyScenario.node[36].veinsmobility 	stopTime 	36
scalar MyScenario.node[36].veinsmobility 	minSpeed 	1.4508336221799
scalar MyScenario.node[36].veinsmobility 	maxSpeed 	13.773637538054
scalar MyScenario.node[36].veinsmobility 	totalDistance 	370.00190230964
scalar MyScenario.node[36].veinsmobility 	totalCO2Emission 	111.23968081055
scalar MyScenario.node[127].appl 	generatedWSMs 	0
scalar MyScenario.node[127].appl 	receivedWSMs 	0
scalar MyScenario.node[127].appl 	generatedBSMs 	0
scalar MyScenario.node[127].appl 	receivedBSMs 	0
scalar MyScenario.node[127].appl 	generatedWSAs 	0
scalar MyScenario.node[127].appl 	receivedWSAs 	0
scalar MyScenario.node[127].nic.phy80211p 	busyTime 	5.8e-05
scalar MyScenario.node[127].nic.mac1609_4 	ReceivedUnicastPackets 	0
scalar MyScenario.node[127].nic.mac1609_4 	ReceivedBroadcasts 	0
scalar MyScenario.node[127].nic.mac1609_4 	SentPackets 	0
scalar MyScenario.node[127].nic.mac1609_4 	SNIRLostPackets 	9
scalar MyScenario.node[127].nic.mac1609_4 	RXTXLostPackets 	0
scalar MyScenario.node[127].nic.mac1609_4 	TotalLostPackets 	9
scalar MyScenario.node[127].nic.mac1609_4 	DroppedPacketsInMac 	0
scalar MyScenario.node[127].nic.mac1609_4 	TooLittleTime 	0
scalar MyScenario.node[127].nic.mac1609_4 	TimesIntoBackoff 	0
scalar MyScenario.node[127].nic.mac1609_4 	SlotsBackoff 	0
scalar MyScenario.node[127].nic.mac1609_4 	NumInternalContention 	0
scalar MyScenario.node[127].nic.mac1609_4 	totalBusyTime 	0.000232
scalar MyScenario.node[127].veinsmobility 	startTime 	1
scalar MyScenario.node[127].veinsmobility 	totalTime 	35
scalar MyScenario.node[127].veinsmobility 	stopTime 	37
scalar MyScenario.node[127].veinsmobility 	minSpeed 	1.0463957434859
scalar MyScenario.node[127].veinsmobility 	maxSpeed 	13.838592065009
scalar MyScenario.node[127].veinsmobility 	totalDistance 	369.95096146828
scalar MyScenario.node[127].veinsmobility 	totalCO2Emission 	115.78384532859
scalar MyScenario.node[268].appl 	generatedWSMs 	0
scalar MyScenario.node[268].appl 	receivedWSMs 	0
scalar MyScenario.node[268].appl 	generatedBSMs 	0
scalar MyScenario.node[268].appl 	receivedBSMs 	0
scalar MyScenario.node[268].appl 	generatedWSAs 	0
scalar MyScenario.node[268].appl 	receivedWSAs 	0
scalar MyScenario.node[268].nic.phy80211p 	busyTime 	0
scalar MyScenario.node[268].nic.mac1609_4 	ReceivedUnicastPackets 	0
scalar MyScenario.node[268].nic.mac1609_4 	ReceivedBroadcasts 	0
scalar MyScenario.node[268].nic.mac1609_4 	SentPackets 	0
scalar MyScenario.node[268].nic.mac1609_4 	SNIRLostPackets 	0
scalar MyScenario.node[268].nic.mac1609_4 	RXTXLostPackets 	0
scalar MyScenario.node[268].nic.mac1609_4 	TotalLostPackets 	0
scalar MyScenario.node[268].nic.mac1609_4 	DroppedPacketsInMac 	0
scalar MyScenario.node[268].nic.mac1609_4 	TooLittleTime 	0
scalar MyScenario.node[268].nic.mac1609_4 	TimesIntoBackoff 	0
scalar MyScenario.node[268].nic.mac1609_4 	SlotsBackoff 	0
scalar MyScenario.node[268].nic.mac1609_4 	NumInternalContention 	0
scalar MyScenario.node[268].nic.mac1609_4 	totalBusyTime 	0
scalar MyScenario.node[268].veinsmobility 	startTime 	4
scalar MyScenario.node[268].veinsmobility 	totalTime 	32
scalar MyScenario.node[268].veinsmobility 	stopTime 	37
scalar MyScenario.node[268].veinsmobility 	minSpeed 	0.97779524889537
scalar MyScenario.node[268].veinsmobility 	maxSpeed 	13.756377440714
scalar MyScenario.node[268].veinsmobility 	totalDistance 	378.05245722545
scalar MyScenario.node[268].veinsmobility 	totalCO2Emission 	88.550128884614
scalar MyScenario.node[323].appl 	generatedWSMs 	1
scalar MyScenario.node[323].appl 	receivedWSMs 	5
scalar MyScenario.node[323].appl 	generatedBSMs 	0
scalar MyScenario.node[323].appl 	receivedBSMs 	0
scalar MyScenario.node[323].appl 	generatedWSAs 	0
scalar MyScenario.node[323].appl 	receivedWSAs 	0
scalar MyScenario.node[323].nic.phy80211p 	busyTime 	0.000348
scalar MyScenario.node[323].nic.mac1609_4 	ReceivedUnicastPackets 	0
scalar MyScenario.node[323].nic.mac1609_4 	ReceivedBroadcasts 	5
scalar MyScenario.node[323].nic.mac1609_4 	SentPackets 	1
scalar MyScenario.node[323].nic.mac1609_4 	SNIRLostPackets 	46
scalar MyScenario.node[323].nic.mac1609_4 	RXTXLostPackets 	0
scalar MyScenario.node[323].nic.mac1609_4 	TotalLostPackets 	46
scalar MyScenario.node[323].nic.mac1609_4 	DroppedPacketsInMac 	0
scalar MyScenario.node[323].nic.mac1609_4 	TooLittleTime 	0
scalar MyScenario.node[323].nic.mac1609_4 	TimesIntoBackoff 	1
scalar MyScenario.node[323].nic.mac1609_4 	SlotsBackoff 	0
scalar MyScenario.node[323].nic.mac1609_4 	NumInternalContention 	0
scalar MyScenario.node[323].nic.mac1609_4 	totalBusyTime 	0.004409023455
scalar MyScenario.node[323].veinsmobility 	startTime 	4
scalar MyScenario.node[323].veinsmobility 	totalTime 	33
scalar MyScenario.node[323].veinsmobility 	stopTime 	38
scalar MyScenario.node[323].veinsmobility 	minSpeed 	1.9365036661969
scalar MyScenario.node[323].veinsmobility 	maxSpeed 	13.888655840908
scalar MyScenario.node[323].veinsmobility 	totalDistance 	373.03439027861
scalar MyScenario.node[323].veinsmobility 	totalCO2Emission 	116.97969142006
scalar MyScenario.node[233].appl 	generatedWSMs 	0
scalar MyScenario.node[233].appl 	receivedWSMs 	0
scalar MyScenario.node[233].appl 	generatedBSMs 	0
scalar MyScenario.node[233].appl 	receivedBSMs 	0
scalar MyScenario.node[233].appl 	generatedWSAs 	0
scalar MyScenario.node[233].appl 	receivedWSAs 	0
scalar MyScenario.node[233].nic.phy80211p 	busyTime 	0
scalar MyScenario.node[233].nic.mac1609_4 	ReceivedUnicastPackets 	0
scalar MyScenario.node[233].nic.mac1609_4 	ReceivedBroadcasts 	0
scalar MyScenario.node[233].nic.mac1609_4 	SentPackets 	0
scalar MyScenario.node[233].nic.mac1609_4 	SNIRLostPackets 	0
scalar MyScenario.node[233].nic.mac1609_4 	RXTXLostPackets 	0
scalar MyScenario.node[233].nic.mac1609_4 	TotalLostPackets 	0
scalar MyScenario.node[233].nic.mac1609_4 	DroppedPacketsInMac 	0
scalar MyScenario.node[233].nic.mac1609_4 	TooLittleTime 	0
scalar MyScenario.node[233].nic.mac1609_4 	TimesIntoBackoff 	0
scalar MyScenario.node[233].nic.mac1609_4 	SlotsBackoff 	0
scalar MyScenario.node[233].nic.mac1609_4 	NumInternalContention 	0
scalar MyScenario.node[233].nic.mac1609_4 	totalBusyTime 	0
scalar MyScenario.node[233].veinsmobility 	startTime 	1
scalar MyScenario.node[233].veinsmobility 	totalTime 	36
scalar MyScenario.node[233].veinsmobility 	stopTime 	38
scalar MyScenario.node[233].veinsmobility 	minSpeed 	0.4468395903126
scalar MyScenario.node[233].veinsmobility 	maxSpeed 	13.776756277843
scalar MyScenario.node[233].veinsmobility 	totalDistance 	373.5569959355
scalar MyScenario.node[233].veinsmobility 	totalCO2Emission 	123.81604231638
scalar MyScenario.node[40].appl 	generatedWSMs 	0
scalar MyScenario.node[40].appl 	receivedWSMs 	0
scalar MyScenario.node[40].appl 	generatedBSMs 	0
scalar MyScenario.node[40].appl 	receivedBSMs 	0
scalar MyScenario.node[40].appl 	generatedWSAs 	0
scalar MyScenario.node[40].appl 	receivedWSAs 	0
scalar MyScenario.node[40].nic.phy80211p 	busyTime 	0
scalar MyScenario.node[40].nic.mac1609_4 	ReceivedUnicastPackets 	0
scalar MyScenario.node[40].nic.mac1609_4 	ReceivedBroadcasts 	0
scalar MyScenario.node[40].nic.mac1609_4 	SentPackets 	0
scalar MyScenario.node[40].nic.mac1609_4 	SNIRLostPackets 	0
scalar MyScenario.node[40].nic.mac1609_4 	RXTXLostPackets 	0
scalar MyScenario.node[40].nic.mac1609_4 	TotalLostPackets 	0
scalar MyScenario.node[40].nic.mac1609_4 	DroppedPacketsInMac 	0
scalar MyScenario.node[40].nic.mac1609_4 	TooLittleTime 	0
scalar MyScenario.node[40].nic.mac1609_4 	TimesIntoBackoff 	0
scalar MyScenario.node[40].nic.mac1609_4 	SlotsBackoff 	0
scalar MyScenario.node[40].nic.mac1609_4 	NumInternalContention 	0
scalar MyScenario.node[40].nic.mac1609_4 	totalBusyTime 	0
scalar MyScenario.node[40].veinsmobility 	startTime 	1
scalar MyScenario.node[40].veinsmobility 	totalTime 	38
scalar MyScenario.node[40].veinsmobility 	stopTime 	40
scalar MyScenario.node[40].veinsmobility 	minSpeed 	0.10353180158021
scalar MyScenario.node[40].veinsmobility 	maxSpeed 	13.836091231881
scalar MyScenario.node[40].veinsmobility 	totalDistance 	373.01782659284
scalar MyScenario.node[40].veinsmobility 	totalCO2Emission 	134.2212252604
scalar MyScenario.node[258].appl 	generatedWSMs 	0
scalar MyScenario.node[258].appl 	receivedWSMs 	0
scalar MyScenario.node[258].appl 	generatedBSMs 	0
scalar MyScenario.node[258].appl 	receivedBSMs 	0
scalar MyScenario.node[258].appl 	generatedWSAs 	0
scalar MyScenario.node[258].appl 	receivedWSAs 	0
scalar MyScenario.node[258].nic.phy80211p 	busyTime 	0
scalar MyScenario.node[258].nic.mac1609_4 	ReceivedUnicastPackets 	0
scalar MyScenario.node[258].nic.mac1609_4 	ReceivedBroadcasts 	0
scalar MyScenario.node[258].nic.mac1609_4 	SentPackets 	0
scalar MyScenario.node[258].nic.mac1609_4 	SNIRLostPackets 	0
scalar MyScenario.node[258].nic.mac1609_4 	RXTXLostPackets 	0
scalar MyScenario.node[258].nic.mac1609_4 	TotalLostPackets 	0
scalar MyScenario.node[258].nic.mac1609_4 	DroppedPacketsInMac 	0
scalar MyScenario.node[258].nic.mac1609_4 	TooLittleTime 	0
scalar MyScenario.node[258].nic.mac1609_4 	TimesIntoBackoff 	0
scalar MyScenario.node[258].nic.mac1609_4 	SlotsBackoff 	0
scalar MyScenario.node[258].nic.mac1609_4 	NumInternalContention 	0
scalar MyScenario.node[258].nic.mac1609_4 	totalBusyTime 	0
scalar MyScenario.node[258].veinsmobility 	startTime 	4
scalar MyScenario.node[258].veinsmobility 	totalTime 	36
scalar MyScenario.node[258].veinsmobility 	stopTime 	41
scalar MyScenario.node[258].veinsmobility 	minSpeed 	0.00011013400668447
scalar MyScenario.node[258].veinsmobility 	maxSpeed 	13.665743622026
scalar MyScenario.node[258].veinsmobility 	totalDistance 	272.29781454162
scalar MyScenario.node[258].veinsmobility 	totalCO2Emission 	123.01130576163
scalar MyScenario.node[210].appl 	generatedWSMs 	0
scalar MyScenario.node[210].appl 	receivedWSMs 	0
scalar MyScenario.node[210].appl 	generatedBSMs 	0
scalar MyScenario.node[210].appl 	receivedBSMs 	0
scalar MyScenario.node[210].appl 	generatedWSAs 	0
scalar MyScenario.node[210].appl 	receivedWSAs 	0
scalar MyScenario.node[210].nic.phy80211p 	busyTime 	5.6585365853659e-06
scalar MyScenario.node[210].nic.mac1609_4 	ReceivedUnicastPackets 	0
scalar MyScenario.node[210].nic.mac1609_4 	ReceivedBroadcasts 	0
scalar MyScenario.node[210].nic.mac1609_4 	SentPackets 	0
scalar MyScenario.node[210].nic.mac1609_4 	SNIRLostPackets 	1
scalar MyScenario.node[210].nic.mac1609_4 	RXTXLostPackets 	0
scalar MyScenario.node[210].nic.mac1609_4 	TotalLostPackets 	1
scalar MyScenario.node[210].nic.mac1609_4 	DroppedPacketsInMac 	0
scalar MyScenario.node[210].nic.mac1609_4 	TooLittleTime 	0
scalar MyScenario.node[210].nic.mac1609_4 	TimesIntoBackoff 	0
scalar MyScenario.node[210].nic.mac1609_4 	SlotsBackoff 	0
scalar MyScenario.node[210].nic.mac1609_4 	NumInternalContention 	0
scalar MyScenario.node[210].nic.mac1609_4 	totalBusyTime 	0.000232
scalar MyScenario.node[210].veinsmobility 	startTime 	1
scalar MyScenario.node[210].veinsmobility 	totalTime 	40
scalar MyScenario.node[210].veinsmobility 	stopTime 	42
scalar MyScenario.node[210].veinsmobility 	minSpeed 	1.6479886407498
scalar MyScenario.node[210].veinsmobility 	maxSpeed 	13.888736183033
scalar MyScenario.node[210].veinsmobility 	totalDistance 	481.9670351527
scalar MyScenario.node[210].veinsmobility 	totalCO2Emission 	109.16396243525
scalar MyScenario.node[58].appl 	generatedWSMs 	1
scalar MyScenario.node[58].appl 	receivedWSMs 	5
scalar MyScenario.node[58].appl 	generatedBSMs 	0
scalar MyScenario.node[58].appl 	receivedBSMs 	0
scalar MyScenario.node[58].appl 	generatedWSAs 	0
scalar MyScenario.node[58].appl 	receivedWSAs 	0
scalar MyScenario.node[58].nic.phy80211p 	busyTime 	0.00022095238095238
scalar MyScenario.node[58].nic.mac1609_4 	ReceivedUnicastPackets 	0
scalar MyScenario.node[58].nic.mac1609_4 	ReceivedBroadcasts 	5
scalar MyScenario.node[58].nic.mac1609_4 	SentPackets 	1
scalar MyScenario.node[58].nic.mac1609_4 	SNIRLostPackets 	35
scalar MyScenario.node[58].nic.mac1609_4 	RXTXLostPackets 	5
scalar MyScenario.node[58].nic.mac1609_4 	TotalLostPackets 	40
scalar MyScenario.node[58].nic.mac1609_4 	DroppedPacketsInMac 	0
scalar MyScenario.node[58].nic.mac1609_4 	TooLittleTime 	0
scalar MyScenario.node[58].nic.mac1609_4 	TimesIntoBackoff 	1
scalar MyScenario.node[58].nic.mac1609_4 	SlotsBackoff 	2
scalar MyScenario.node[58].nic.mac1609_4 	NumInternalContention 	0
scalar MyScenario.node[58].nic.mac1609_4 	totalBusyTime 	0.003017
scalar MyScenario.node[58].veinsmobility 	startTime 	1
scalar MyScenario.node[58].veinsmobility 	totalTime 	41
scalar MyScenario.node[58].veinsmobility 	stopTime 	43
scalar MyScenario.node[58].veinsmobility 	minSpeed 	2.08561685225
scalar MyScenario.node[58].veinsmobility 	maxSpeed 	13.860971950321
scalar MyScenario.node[58].veinsmobility 	totalDistance 	460.82670701959
scalar MyScenario.node[58].veinsmobility 	totalCO2Emission 	123.82763300419
scalar MyScenario.node[224].appl 	generatedWSMs 	0
scalar MyScenario.node[224].appl 	receivedWSMs 	0
scalar MyScenario.node[224].appl 	generatedBSMs 	0
scalar MyScenario.node[224].appl 	receivedBSMs 	0
scalar MyScenario.node[224].appl 	generatedWSAs 	0
scalar MyScenario.node[224].appl 	receivedWSAs 	0
scalar MyScenario.node[224].nic.phy80211p 	busyTime 	6.4744186046512e-05
scalar MyScenario.node[224].nic.mac1609_4 	ReceivedUnicastPackets 	0
scalar MyScenario.node[224].nic.mac1609_4 	ReceivedBroadcasts 	0
scalar MyScenario.node[224].nic.mac1609_4 	SentPackets 	0
scalar MyScenario.node[224].nic.mac1609_4 	SNIRLostPackets 	12
scalar MyScenario.node[224].nic.mac1609_4 	RXTXLostPackets 	0
scalar MyScenario.node[224].nic.mac1609_4 	TotalLostPackets 	12
scalar MyScenario.node[224].nic.mac1609_4 	DroppedPacketsInMac 	0
scalar MyScenario.node[224].nic.mac1609_4 	TooLittleTime 	0
scalar MyScenario.node[224].nic.mac1609_4 	TimesIntoBackoff 	0
scalar MyScenario.node[224].nic.mac1609_4 	SlotsBackoff 	0
scalar MyScenario.node[224].nic.mac1609_4 	NumInternalContention 	0
scalar MyScenario.node[224].nic.mac1609_4 	totalBusyTime 	0.000464
scalar MyScenario.node[224].veinsmobility 	startTime 	1
scalar MyScenario.node[224].veinsmobility 	totalTime 	42
scalar MyScenario.node[224].veinsmobility 	stopTime 	44
scalar MyScenario.node[224].veinsmobility 	minSpeed 	2.9626442716181e-07
scalar MyScenario.node[224].veinsmobility 	maxSpeed 	13.861068240041
scalar MyScenario.node[224].veinsmobility 	totalDistance 	270.8719761656
scalar MyScenario.node[224].veinsmobility 	totalCO2Emission 	110.92593035399
scalar MyScenario.node[96].appl 	generatedWSMs 	0
scalar MyScenario.node[96].appl 	receivedWSMs 	0
scalar MyScenario.node[96].appl 	generatedBSMs 	0
scalar MyScenario.node[96].appl 	receivedBSMs 	0
scalar MyScenario.node[96].appl 	generatedWSAs 	0
scalar MyScenario.node[96].appl 	receivedWSAs 	0
scalar MyScenario.node[96].nic.phy80211p 	busyTime 	1.5818181818182e-05
scalar MyScenario.node[96].nic.mac1609_4 	ReceivedUnicastPackets 	0
scalar MyScenario.node[96].nic.mac1609_4 	ReceivedBroadcasts 	0
scalar MyScenario.node[96].nic.mac1609_4 	SentPackets 	0
scalar MyScenario.node[96].nic.mac1609_4 	SNIRLostPackets 	3
scalar MyScenario.node[96].nic.mac1609_4 	RXTXLostPackets 	0
scalar MyScenario.node[96].nic.mac1609_4 	TotalLostPackets 	3
scalar MyScenario.node[96].nic.mac1609_4 	DroppedPacketsInMac 	0
scalar MyScenario.node[96].nic.mac1609_4 	TooLittleTime 	0
scalar MyScenario.node[96].nic.mac1609_4 	TimesIntoBackoff 	0
scalar MyScenario.node[96].nic.mac1609_4 	SlotsBackoff 	0
scalar MyScenario.node[96].nic.mac1609_4 	NumInternalContention 	0
scalar MyScenario.node[96].nic.mac1609_4 	totalBusyTime 	0.000232
scalar MyScenario.node[96].veinsmobility 	startTime 	1
scalar MyScenario.node[96].veinsmobility 	totalTime 	43
scalar MyScenario.node[96].veinsmobility 	stopTime 	45
scalar MyScenario.node[96].veinsmobility 	minSpeed 	1.2290396464765e-06
scalar MyScenario.node[96].veinsmobility 	maxSpeed 	13.689648628468
scalar MyScenario.node[96].veinsmobility 	totalDistance 	374.85329801147
scalar MyScenario.node[96].veinsmobility 	totalCO2Emission 	117.38460556659
scalar MyScenario.node[183].appl 	generatedWSMs 	1
scalar MyScenario.node[183].appl 	receivedWSMs 	9
scalar MyScenario.node[183].appl 	generatedBSMs 	0
scalar MyScenario.node[183].appl 	receivedBSMs 	0
scalar MyScenario.node[183].appl 	generatedWSAs 	0
scalar MyScenario.node[183].appl 	receivedWSAs 	0
scalar MyScenario.node[183].nic.phy80211p 	busyTime 	0.00022145454545455
scalar MyScenario.node[183].nic.mac1609_4 	ReceivedUnicastPackets 	0
scalar MyScenario.node[183].nic.mac1609_4 	ReceivedBroadcasts 	9
scalar MyScenario.node[183].nic.mac1609_4 	SentPackets 	1
scalar MyScenario.node[183].nic.mac1609_4 	SNIRLostPackets 	33
scalar MyScenario.node[183].nic.mac1609_4 	RXTXLostPackets 	5
scalar MyScenario.node[183].nic.mac1609_4 	TotalLostPackets 	38
scalar MyScenario.node[183].nic.mac1609_4 	DroppedPacketsInMac 	0
scalar MyScenario.node[183].nic.mac1609_4 	TooLittleTime 	0
scalar MyScenario.node[183].nic.mac1609_4 	TimesIntoBackoff 	1
scalar MyScenario.node[183].nic.mac1609_4 	SlotsBackoff 	3
scalar MyScenario.node[183].nic.mac1609_4 	NumInternalContention 	0
scalar MyScenario.node[183].nic.mac1609_4 	totalBusyTime 	0.003481079938
scalar MyScenario.node[183].veinsmobility 	startTime 	1
scalar MyScenario.node[183].veinsmobility 	totalTime 	43
scalar MyScenario.node[183].veinsmobility 	stopTime 	45
scalar MyScenario.node[183].veinsmobility 	minSpeed 	0.017591304495339
scalar MyScenario.node[183].veinsmobility 	maxSpeed 	13.847897857311
scalar MyScenario.node[183].veinsmobility 	totalDistance 	373.89296735787
scalar MyScenario.node[183].veinsmobility 	totalCO2Emission 	141.76348871207
scalar MyScenario.node[43].appl 	generatedWSMs 	0
scalar MyScenario.node[43].appl 	receivedWSMs 	0
scalar MyScenario.node[43].appl 	generatedBSMs 	0
scalar MyScenario.node[43].appl 	receivedBSMs 	0
scalar MyScenario.node[43].appl 	generatedWSAs 	0
scalar MyScenario.node[43].appl 	receivedWSAs 	0
scalar MyScenario.node[43].nic.phy80211p 	busyTime 	5.2727272727273e-06
scalar MyScenario.node[43].nic.mac1609_4 	ReceivedUnicastPackets 	0
scalar MyScenario.node[43].nic.mac1609_4 	ReceivedBroadcasts 	0
scalar MyScenario.node[43].nic.mac1609_4 	SentPackets 	0
scalar MyScenario.node[43].nic.mac1609_4 	SNIRLostPackets 	1
scalar MyScenario.node[43].nic.mac1609_4 	RXTXLostPackets 	0
scalar MyScenario.node[43].nic.mac1609_4 	TotalLostPackets 	1
scalar MyScenario.node[43].nic.mac1609_4 	DroppedPacketsInMac 	0
scalar MyScenario.node[43].nic.mac1609_4 	TooLittleTime 	0
scalar MyScenario.node[43].nic.mac1609_4 	TimesIntoBackoff 	0
scalar MyScenario.node[43].nic.mac1609_4 	SlotsBackoff 	0
scalar MyScenario.node[43].nic.mac1609_4 	NumInternalContention 	0
scalar MyScenario.node[43].nic.mac1609_4 	totalBusyTime 	0.000232
scalar MyScenario.node[43].veinsmobility 	startTime 	1
scalar MyScenario.node[43].veinsmobility 	totalTime 	43
scalar MyScenario.node[43].veinsmobility 	stopTime 	45
scalar MyScenario.node[43].veinsmobility 	minSpeed 	1.3476970886579
scalar MyScenario.node[43].veinsmobility 	maxSpeed 	13.873126091249
scalar MyScenario.node[43].veinsmobility 	totalDistance 	472.10305620585
scalar MyScenario.node[43].veinsmobility 	totalCO2Emission 	138.77806503483
scalar MyScenario.node[48].appl 	generatedWSMs 	0
scalar MyScenario.node[48].appl 	receivedWSMs 	0
scalar MyScenario.node[48].appl 	generatedBSMs 	0
scalar MyScenario.node[48].appl 	receivedBSMs 	0
scalar MyScenario.node[48].appl 	generatedWSAs 	0
scalar MyScenario.node[48].appl 	receivedWSAs 	0
scalar MyScenario.node[48].nic.phy80211p 	busyTime 	0
scalar MyScenario.node[48].nic.mac1609_4 	ReceivedUnicastPackets 	0
scalar MyScenario.node[48].nic.mac1609_4 	ReceivedBroadcasts 	0
scalar MyScenario.node[48].nic.mac1609_4 	SentPackets 	0
scalar MyScenario.node[48].nic.mac1609_4 	SNIRLostPackets 	0
scalar MyScenario.node[48].nic.mac1609_4 	RXTXLostPackets 	0
scalar MyScenario.node[48].nic.mac1609_4 	TotalLostPackets 	0
scalar MyScenario.node[48].nic.mac1609_4 	DroppedPacketsInMac 	0
scalar MyScenario.node[48].nic.mac1609_4 	TooLittleTime 	0
scalar MyScenario.node[48].nic.mac1609_4 	TimesIntoBackoff 	0
scalar MyScenario.node[48].nic.mac1609_4 	SlotsBackoff 	0
scalar MyScenario.node[48].nic.mac1609_4 	NumInternalContention 	0
scalar MyScenario.node[48].nic.mac1609_4 	totalBusyTime 	0
scalar MyScenario.node[48].veinsmobility 	startTime 	1
scalar MyScenario.node[48].veinsmobility 	totalTime 	44
scalar MyScenario.node[48].veinsmobility 	stopTime 	46
scalar MyScenario.node[48].veinsmobility 	minSpeed 	1.3942685860675
scalar MyScenario.node[48].veinsmobility 	maxSpeed 	13.89974804658
scalar MyScenario.node[48].veinsmobility 	totalDistance 	469.69199949076
scalar MyScenario.node[48].veinsmobility 	totalCO2Emission 	137.0977639352
scalar MyScenario.node[60].appl 	generatedWSMs 	0
scalar MyScenario.node[60].appl 	receivedWSMs 	0
scalar MyScenario.node[60].appl 	generatedBSMs 	0
scalar MyScenario.node[60].appl 	receivedBSMs 	0
scalar MyScenario.node[60].appl 	generatedWSAs 	0
scalar MyScenario.node[60].appl 	receivedWSAs 	0
scalar MyScenario.node[60].nic.phy80211p 	busyTime 	6.7022222222222e-05
scalar MyScenario.node[60].nic.mac1609_4 	ReceivedUnicastPackets 	0
scalar MyScenario.node[60].nic.mac1609_4 	ReceivedBroadcasts 	0
scalar MyScenario.node[60].nic.mac1609_4 	SentPackets 	0
scalar MyScenario.node[60].nic.mac1609_4 	SNIRLostPackets 	13
scalar MyScenario.node[60].nic.mac1609_4 	RXTXLostPackets 	0
scalar MyScenario.node[60].nic.mac1609_4 	TotalLostPackets 	13
scalar MyScenario.node[60].nic.mac1609_4 	DroppedPacketsInMac 	0
scalar MyScenario.node[60].nic.mac1609_4 	TooLittleTime 	0
scalar MyScenario.node[60].nic.mac1609_4 	TimesIntoBackoff 	0
scalar MyScenario.node[60].nic.mac1609_4 	SlotsBackoff 	0
scalar MyScenario.node[60].nic.mac1609_4 	NumInternalContention 	0
scalar MyScenario.node[60].nic.mac1609_4 	totalBusyTime 	0.000928
scalar MyScenario.node[60].veinsmobility 	startTime 	1
scalar MyScenario.node[60].veinsmobility 	totalTime 	44
scalar MyScenario.node[60].veinsmobility 	stopTime 	46
scalar MyScenario.node[60].veinsmobility 	minSpeed 	0.12471329928035
scalar MyScenario.node[60].veinsmobility 	maxSpeed 	13.794607527973
scalar MyScenario.node[60].veinsmobility 	totalDistance 	473.18375499448
scalar MyScenario.node[60].veinsmobility 	totalCO2Emission 	128.32278677761
scalar MyScenario.node[397].appl 	generatedWSMs 	0
scalar MyScenario.node[397].appl 	receivedWSMs 	0
scalar MyScenario.node[397].appl 	generatedBSMs 	0
scalar MyScenario.node[397].appl 	receivedBSMs 	0
scalar MyScenario.node[397].appl 	generatedWSAs 	0
scalar MyScenario.node[397].appl 	receivedWSAs 	0
scalar MyScenario.node[397].nic.phy80211p 	busyTime 	0
scalar MyScenario.node[397].nic.mac1609_4 	ReceivedUnicastPackets 	0
scalar MyScenario.node[397].nic.mac1609_4 	ReceivedBroadcasts 	0
scalar MyScenario.node[397].nic.mac1609_4 	SentPackets 	0
scalar MyScenario.node[397].nic.mac1609_4 	SNIRLostPackets 	0
scalar MyScenario.node[397].nic.mac1609_4 	RXTXLostPackets 	0
scalar MyScenario.node[397].nic.mac1609_4 	TotalLostPackets 	0
scalar MyScenario.node[397].nic.mac1609_4 	DroppedPacketsInMac 	0
scalar MyScenario.node[397].nic.mac1609_4 	TooLittleTime 	0
scalar MyScenario.node[397].nic.mac1609_4 	TimesIntoBackoff 	0
scalar MyScenario.node[397].nic.mac1609_4 	SlotsBackoff 	0
scalar MyScenario.node[397].nic.mac1609_4 	NumInternalContention 	0
scalar MyScenario.node[397].nic.mac1609_4 	totalBusyTime 	0
scalar MyScenario.node[397].veinsmobility 	startTime 	11
scalar MyScenario.node[397].veinsmobility 	totalTime 	35
scalar MyScenario.node[397].veinsmobility 	stopTime 	47
scalar MyScenario.node[397].veinsmobility 	minSpeed 	0.59673190652057
scalar MyScenario.node[397].veinsmobility 	maxSpeed 	13.85253755087
scalar MyScenario.node[397].veinsmobility 	totalDistance 	382.10117451613
scalar MyScenario.node[397].veinsmobility 	totalCO2Emission 	91.235244463801
scalar MyScenario.node[295].appl 	generatedWSMs 	1
scalar MyScenario.node[295].appl 	receivedWSMs 	4
scalar MyScenario.node[295].appl 	generatedBSMs 	0
scalar MyScenario.node[295].appl 	receivedBSMs 	0
scalar MyScenario.node[295].appl 	generatedWSAs 	0
scalar MyScenario.node[295].appl 	receivedWSAs 	0
scalar MyScenario.node[295].nic.phy80211p 	busyTime 	0.00021041860465116
scalar MyScenario.node[295].nic.mac1609_4 	ReceivedUnicastPackets 	0
scalar MyScenario.node[295].nic.mac1609_4 	ReceivedBroadcasts 	4
scalar MyScenario.node[295].nic.mac1609_4 	SentPackets 	1
scalar MyScenario.node[295].nic.mac1609_4 	SNIRLostPackets 	35
scalar MyScenario.node[295].nic.mac1609_4 	RXTXLostPackets 	5
scalar MyScenario.node[295].nic.mac1609_4 	TotalLostPackets 	40
scalar MyScenario.node[295].nic.mac1609_4 	DroppedPacketsInMac 	0
scalar MyScenario.node[295].nic.mac1609_4 	TooLittleTime 	0
scalar MyScenario.node[295].nic.mac1609_4 	TimesIntoBackoff 	1
scalar MyScenario.node[295].nic.mac1609_4 	SlotsBackoff 	3
scalar MyScenario.node[295].nic.mac1609_4 	NumInternalContention 	0
scalar MyScenario.node[295].nic.mac1609_4 	totalBusyTime 	0.003713216725
scalar MyScenario.node[295].veinsmobility 	startTime 	4
scalar MyScenario.node[295].veinsmobility 	totalTime 	42
scalar MyScenario.node[295].veinsmobility 	stopTime 	47
scalar MyScenario.node[295].veinsmobility 	minSpeed 	2.4357351052336
scalar MyScenario.node[295].veinsmobility 	maxSpeed 	13.883465413214
scalar MyScenario.node[295].veinsmobility 	totalDistance 	475.42475003363
scalar MyScenario.node[295].veinsmobility 	totalCO2Emission 	124.48023906459
scalar MyScenario.node[346].appl 	generatedWSMs 	0
scalar MyScenario.node[346].appl 	receivedWSMs 	0
scalar MyScenario.node[346].appl 	generatedBSMs 	0
scalar MyScenario.node[346].appl 	receivedBSMs 	0
scalar MyScenario.node[346].appl 	generatedWSAs 	0
scalar MyScenario.node[346].appl 	receivedWSAs 	0
scalar MyScenario.node[346].nic.phy80211p 	busyTime 	0.00014567441860465
scalar MyScenario.node[346].nic.mac1609_4 	ReceivedUnicastPackets 	0
scalar MyScenario.node[346].nic.mac1609_4 	ReceivedBroadcasts 	0
scalar MyScenario.node[346].nic.mac1609_4 	SentPackets 	0
scalar MyScenario.node[346].nic.mac1609_4 	SNIRLostPackets 	27
scalar MyScenario.node[346].nic.mac1609_4 	RXTXLostPackets 	0
scalar MyScenario.node[346].nic.mac1609_4 	TotalLostPackets 	27
scalar MyScenario.node[346].nic.mac1609_4 	DroppedPacketsInMac 	0
scalar MyScenario.node[346].nic.mac1609_4 	TooLittleTime 	0
scalar MyScenario.node[346].nic.mac1609_4 	TimesIntoBackoff 	0
scalar MyScenario.node[346].nic.mac1609_4 	SlotsBackoff 	0
scalar MyScenario.node[346].nic.mac1609_4 	NumInternalContention 	0
scalar MyScenario.node[346].nic.mac1609_4 	totalBusyTime 	0.002088
scalar MyScenario.node[346].veinsmobility 	startTime 	4
scalar MyScenario.node[346].veinsmobility 	totalTime 	42
scalar MyScenario.node[346].veinsmobility 	stopTime 	47
scalar MyScenario.node[346].veinsmobility 	minSpeed 	1.6404779556906
scalar MyScenario.node[346].veinsmobility 	maxSpeed 	13.796821400337
scalar MyScenario.node[346].veinsmobility 	totalDistance 	478.21503183091
scalar MyScenario.node[346].veinsmobility 	totalCO2Emission 	123.77402994865
scalar MyScenario.node[141].appl 	generatedWSMs 	1
scalar MyScenario.node[141].appl 	receivedWSMs 	10
scalar MyScenario.node[141].appl 	generatedBSMs 	0
scalar MyScenario.node[141].appl 	receivedBSMs 	0
scalar MyScenario.node[141].appl 	generatedWSAs 	0
scalar MyScenario.node[141].appl 	receivedWSAs 	0
scalar MyScenario.node[141].nic.phy80211p 	busyTime 	0.00029232
scalar MyScenario.node[141].nic.mac1609_4 	ReceivedUnicastPackets 	0
scalar MyScenario.node[141].nic.mac1609_4 	ReceivedBroadcasts 	10
scalar MyScenario.node[141].nic.mac1609_4 	SentPackets 	1
scalar MyScenario.node[141].nic.mac1609_4 	SNIRLostPackets 	53
scalar MyScenario.node[141].nic.mac1609_4 	RXTXLostPackets 	21
scalar MyScenario.node[141].nic.mac1609_4 	TotalLostPackets 	74
scalar MyScenario.node[141].nic.mac1609_4 	DroppedPacketsInMac 	0
scalar MyScenario.node[141].nic.mac1609_4 	TooLittleTime 	0
scalar MyScenario.node[141].nic.mac1609_4 	TimesIntoBackoff 	1
scalar MyScenario.node[141].nic.mac1609_4 	SlotsBackoff 	3
scalar MyScenario.node[141].nic.mac1609_4 	NumInternalContention 	0
scalar MyScenario.node[141].nic.mac1609_4 	totalBusyTime 	0.006033084208
scalar MyScenario.node[141].veinsmobility 	startTime 	1
scalar MyScenario.node[141].veinsmobility 	totalTime 	49
scalar MyScenario.node[141].veinsmobility 	stopTime 	51
scalar MyScenario.node[141].veinsmobility 	minSpeed 	9.1305647826709e-06
scalar MyScenario.node[141].veinsmobility 	maxSpeed 	13.837607604894
scalar MyScenario.node[141].veinsmobility 	totalDistance 	381.72999784826
scalar MyScenario.node[141].veinsmobility 	totalCO2Emission 	151.10028145444
scalar MyScenario.node[158].appl 	generatedWSMs 	0
scalar MyScenario.node[158].appl 	receivedWSMs 	0
scalar MyScenario.node[158].appl 	generatedBSMs 	0
scalar MyScenario.node[158].appl 	receivedBSMs 	0
scalar MyScenario.node[158].appl 	generatedWSAs 	0
scalar MyScenario.node[158].appl 	receivedWSAs 	0
scalar MyScenario.node[158].nic.phy80211p 	busyTime 	3.248e-05
scalar MyScenario.node[158].nic.mac1609_4 	ReceivedUnicastPackets 	0
scalar MyScenario.node[158].nic.mac1609_4 	ReceivedBroadcasts 	0
scalar MyScenario.node[158].nic.mac1609_4 	SentPackets 	0
scalar MyScenario.node[158].nic.mac1609_4 	SNIRLostPackets 	7
scalar MyScenario.node[158].nic.mac1609_4 	RXTXLostPackets 	0
scalar MyScenario.node[158].nic.mac1609_4 	TotalLostPackets 	7
scalar MyScenario.node[158].nic.mac1609_4 	DroppedPacketsInMac 	0
scalar MyScenario.node[158].nic.mac1609_4 	TooLittleTime 	0
scalar MyScenario.node[158].nic.mac1609_4 	TimesIntoBackoff 	0
scalar MyScenario.node[158].nic.mac1609_4 	SlotsBackoff 	0
scalar MyScenario.node[158].nic.mac1609_4 	NumInternalContention 	0
scalar MyScenario.node[158].nic.mac1609_4 	totalBusyTime 	0.000464
scalar MyScenario.node[158].veinsmobility 	startTime 	1
scalar MyScenario.node[158].veinsmobility 	totalTime 	49
scalar MyScenario.node[158].veinsmobility 	stopTime 	51
scalar MyScenario.node[158].veinsmobility 	minSpeed 	1.4417258466594
scalar MyScenario.node[158].veinsmobility 	maxSpeed 	13.886520587513
scalar MyScenario.node[158].veinsmobility 	totalDistance 	562.53616473976
scalar MyScenario.node[158].veinsmobility 	totalCO2Emission 	144.28595709809
scalar MyScenario.node[46].appl 	generatedWSMs 	0
scalar MyScenario.node[46].appl 	receivedWSMs 	0
scalar MyScenario.node[46].appl 	generatedBSMs 	0
scalar MyScenario.node[46].appl 	receivedBSMs 	0
scalar MyScenario.node[46].appl 	generatedWSAs 	0
scalar MyScenario.node[46].appl 	receivedWSAs 	0
scalar MyScenario.node[46].nic.phy80211p 	busyTime 	0
scalar MyScenario.node[46].nic.mac1609_4 	ReceivedUnicastPackets 	0
scalar MyScenario.node[46].nic.mac1609_4 	ReceivedBroadcasts 	0
scalar MyScenario.node[46].nic.mac1609_4 	SentPackets 	0
scalar MyScenario.node[46].nic.mac1609_4 	SNIRLostPackets 	0
scalar MyScenario.node[46].nic.mac1609_4 	RXTXLostPackets 	0
scalar MyScenario.node[46].nic.mac1609_4 	TotalLostPackets 	0
scalar MyScenario.node[46].nic.mac1609_4 	DroppedPacketsInMac 	0
scalar MyScenario.node[46].nic.mac1609_4 	TooLittleTime 	0
scalar MyScenario.node[46].nic.mac1609_4 	TimesIntoBackoff 	0
scalar MyScenario.node[46].nic.mac1609_4 	SlotsBackoff 	0
scalar MyScenario.node[46].nic.mac1609_4 	NumInternalContention 	0
scalar MyScenario.node[46].nic.mac1609_4 	totalBusyTime 	0
scalar MyScenario.node[46].veinsmobility 	startTime 	1
scalar MyScenario.node[46].veinsmobility 	totalTime 	49
scalar MyScenario.node[46].veinsmobility 	stopTime 	51
scalar MyScenario.node[46].veinsmobility 	minSpeed 	1.343421526812
scalar MyScenario.node[46].veinsmobility 	maxSpeed 	13.88207255688
scalar MyScenario.node[46].veinsmobility 	totalDistance 	574.68268355279
scalar MyScenario.node[46].veinsmobility 	totalCO2Emission 	151.40222429351
scalar MyScenario.node[324].appl 	generatedWSMs 	1
scalar MyScenario.node[324].appl 	receivedWSMs 	10
scalar MyScenario.node[324].appl 	generatedBSMs 	0
scalar MyScenario.node[324].appl 	receivedBSMs 	0
scalar MyScenario.node[324].appl 	generatedWSAs 	0
scalar MyScenario.node[324].appl 	receivedWSAs 	0
scalar MyScenario.node[324].nic.phy80211p 	busyTime 	0.00026655319148936
scalar MyScenario.node[324].nic.mac1609_4 	ReceivedUnicastPackets 	0
scalar MyScenario.node[324].nic.mac1609_4 	ReceivedBroadcasts 	10
scalar MyScenario.node[324].nic.mac1609_4 	SentPackets 	1
scalar MyScenario.node[324].nic.mac1609_4 	SNIRLostPackets 	44
scalar MyScenario.node[324].nic.mac1609_4 	RXTXLostPackets 	5
scalar MyScenario.node[324].nic.mac1609_4 	TotalLostPackets 	49
scalar MyScenario.node[324].nic.mac1609_4 	DroppedPacketsInMac 	0
scalar MyScenario.node[324].nic.mac1609_4 	TooLittleTime 	0
scalar MyScenario.node[324].nic.mac1609_4 	TimesIntoBackoff 	1
scalar MyScenario.node[324].nic.mac1609_4 	SlotsBackoff 	2
scalar MyScenario.node[324].nic.mac1609_4 	NumInternalContention 	0
scalar MyScenario.node[324].nic.mac1609_4 	totalBusyTime 	0.005569198472
scalar MyScenario.node[324].veinsmobility 	startTime 	4
scalar MyScenario.node[324].veinsmobility 	totalTime 	46
scalar MyScenario.node[324].veinsmobility 	stopTime 	51
scalar MyScenario.node[324].veinsmobility 	minSpeed 	1.5557481557829
scalar MyScenario.node[324].veinsmobility 	maxSpeed 	13.838014909346
scalar MyScenario.node[324].veinsmobility 	totalDistance 	572.40683249894
scalar MyScenario.node[324].veinsmobility 	totalCO2Emission 	123.01622210678
scalar MyScenario.node[217].appl 	generatedWSMs 	0
scalar MyScenario.node[217].appl 	receivedWSMs 	0
scalar MyScenario.node[217].appl 	generatedBSMs 	0
scalar MyScenario.node[217].appl 	receivedBSMs 	0
scalar MyScenario.node[217].appl 	generatedWSAs 	0
scalar MyScenario.node[217].appl 	receivedWSAs 	0
scalar MyScenario.node[217].nic.phy80211p 	busyTime 	7.278431372549e-05
scalar MyScenario.node[217].nic.mac1609_4 	ReceivedUnicastPackets 	0
scalar MyScenario.node[217].nic.mac1609_4 	ReceivedBroadcasts 	0
scalar MyScenario.node[217].nic.mac1609_4 	SentPackets 	0
scalar MyScenario.node[217].nic.mac1609_4 	SNIRLostPackets 	16
scalar MyScenario.node[217].nic.mac1609_4 	RXTXLostPackets 	0
scalar MyScenario.node[217].nic.mac1609_4 	TotalLostPackets 	16
scalar MyScenario.node[217].nic.mac1609_4 	DroppedPacketsInMac 	0
scalar MyScenario.node[217].nic.mac1609_4 	TooLittleTime 	0
scalar MyScenario.node[217].nic.mac1609_4 	TimesIntoBackoff 	0
scalar MyScenario.node[217].nic.mac1609_4 	SlotsBackoff 	0
scalar MyScenario.node[217].nic.mac1609_4 	NumInternalContention 	0
scalar MyScenario.node[217].nic.mac1609_4 	totalBusyTime 	0.001392
scalar MyScenario.node[217].veinsmobility 	startTime 	1
scalar MyScenario.node[217].veinsmobility 	totalTime 	50
scalar MyScenario.node[217].veinsmobility 	stopTime 	52
scalar MyScenario.node[217].veinsmobility 	minSpeed 	2.346402526414
scalar MyScenario.node[217].veinsmobility 	maxSpeed 	13.815204995894
scalar MyScenario.node[217].veinsmobility 	totalDistance 	566.42151162557
scalar MyScenario.node[217].veinsmobility 	totalCO2Emission 	155.06532289197
scalar MyScenario.node[4].appl 	generatedWSMs 	0
scalar MyScenario.node[4].appl 	receivedWSMs 	0
scalar MyScenario.node[4].appl 	generatedBSMs 	0
scalar MyScenario.node[4].appl 	receivedBSMs 	0
scalar MyScenario.node[4].appl 	generatedWSAs 	0
scalar MyScenario.node[4].appl 	receivedWSAs 	0
scalar MyScenario.node[4].nic.phy80211p 	busyTime 	0.00010007843137255
scalar MyScenario.node[4].nic.mac1609_4 	ReceivedUnicastPackets 	0
scalar MyScenario.node[4].nic.mac1609_4 	ReceivedBroadcasts 	0
scalar MyScenario.node[4].nic.mac1609_4 	SentPackets 	0
scalar MyScenario.node[4].nic.mac1609_4 	SNIRLostPackets 	22
scalar MyScenario.node[4].nic.mac1609_4 	RXTXLostPackets 	0
scalar MyScenario.node[4].nic.mac1609_4 	TotalLostPackets 	22
scalar MyScenario.node[4].nic.mac1609_4 	DroppedPacketsInMac 	0
scalar MyScenario.node[4].nic.mac1609_4 	TooLittleTime 	0
scalar MyScenario.node[4].nic.mac1609_4 	TimesIntoBackoff 	0
scalar MyScenario.node[4].nic.mac1609_4 	SlotsBackoff 	0
scalar MyScenario.node[4].nic.mac1609_4 	NumInternalContention 	0
scalar MyScenario.node[4].nic.mac1609_4 	totalBusyTime 	0.001856
scalar MyScenario.node[4].veinsmobility 	startTime 	1
scalar MyScenario.node[4].veinsmobility 	totalTime 	50
scalar MyScenario.node[4].veinsmobility 	stopTime 	52
scalar MyScenario.node[4].veinsmobility 	minSpeed 	1.4818558719009
scalar MyScenario.node[4].veinsmobility 	maxSpeed 	13.878147799755
scalar MyScenario.node[4].veinsmobility 	totalDistance 	578.72464417999
scalar MyScenario.node[4].veinsmobility 	totalCO2Emission 	173.49742305507
scalar MyScenario.node[404].appl 	generatedWSMs 	0
scalar MyScenario.node[404].appl 	receivedWSMs 	0
scalar MyScenario.node[404].appl 	generatedBSMs 	0
scalar MyScenario.node[404].appl 	receivedBSMs 	0
scalar MyScenario.node[404].appl 	generatedWSAs 	0
scalar MyScenario.node[404].appl 	receivedWSAs 	0
scalar MyScenario.node[404].nic.phy80211p 	busyTime 	0.00010955555555556
scalar MyScenario.node[404].nic.mac1609_4 	ReceivedUnicastPackets 	0
scalar MyScenario.node[404].nic.mac1609_4 	ReceivedBroadcasts 	0
scalar MyScenario.node[404].nic.mac1609_4 	SentPackets 	0
scalar MyScenario.node[404].nic.mac1609_4 	SNIRLostPackets 	17
scalar MyScenario.node[404].nic.mac1609_4 	RXTXLostPackets 	0
scalar MyScenario.node[404].nic.mac1609_4 	TotalLostPackets 	17
scalar MyScenario.node[404].nic.mac1609_4 	DroppedPacketsInMac 	0
scalar MyScenario.node[404].nic.mac1609_4 	TooLittleTime 	0
scalar MyScenario.node[404].nic.mac1609_4 	TimesIntoBackoff 	0
scalar MyScenario.node[404].nic.mac1609_4 	SlotsBackoff 	0
scalar MyScenario.node[404].nic.mac1609_4 	NumInternalContention 	0
scalar MyScenario.node[404].nic.mac1609_4 	totalBusyTime 	0.001624
scalar MyScenario.node[404].veinsmobility 	startTime 	16
scalar MyScenario.node[404].veinsmobility 	totalTime 	35
scalar MyScenario.node[404].veinsmobility 	stopTime 	52
scalar MyScenario.node[404].veinsmobility 	minSpeed 	2.5254472215426
scalar MyScenario.node[404].veinsmobility 	maxSpeed 	13.801565957023
scalar MyScenario.node[404].veinsmobility 	totalDistance 	373.73428866353
scalar MyScenario.node[404].veinsmobility 	totalCO2Emission 	101.12754650951
scalar MyScenario.node[227].appl 	generatedWSMs 	1
scalar MyScenario.node[227].appl 	receivedWSMs 	6
scalar MyScenario.node[227].appl 	generatedBSMs 	0
scalar MyScenario.node[227].appl 	receivedBSMs 	0
scalar MyScenario.node[227].appl 	generatedWSAs 	0
scalar MyScenario.node[227].appl 	receivedWSAs 	0
scalar MyScenario.node[227].nic.phy80211p 	busyTime 	0.00024538461538462
scalar MyScenario.node[227].nic.mac1609_4 	ReceivedUnicastPackets 	0
scalar MyScenario.node[227].nic.mac1609_4 	ReceivedBroadcasts 	6
scalar MyScenario.node[227].nic.mac1609_4 	SentPackets 	1
scalar MyScenario.node[227].nic.mac1609_4 	SNIRLostPackets 	49
scalar MyScenario.node[227].nic.mac1609_4 	RXTXLostPackets 	21
scalar MyScenario.node[227].nic.mac1609_4 	TotalLostPackets 	70
scalar MyScenario.node[227].nic.mac1609_4 	DroppedPacketsInMac 	0
scalar MyScenario.node[227].nic.mac1609_4 	TooLittleTime 	0
scalar MyScenario.node[227].nic.mac1609_4 	TimesIntoBackoff 	1
scalar MyScenario.node[227].nic.mac1609_4 	SlotsBackoff 	2
scalar MyScenario.node[227].nic.mac1609_4 	NumInternalContention 	0
scalar MyScenario.node[227].nic.mac1609_4 	totalBusyTime 	0.004409079137
scalar MyScenario.node[227].veinsmobility 	startTime 	1
scalar MyScenario.node[227].veinsmobility 	totalTime 	51
scalar MyScenario.node[227].veinsmobility 	stopTime 	53
scalar MyScenario.node[227].veinsmobility 	minSpeed 	2.3959852399305
scalar MyScenario.node[227].veinsmobility 	maxSpeed 	13.883568268968
scalar MyScenario.node[227].veinsmobility 	totalDistance 	572.33055890018
scalar MyScenario.node[227].veinsmobility 	totalCO2Emission 	160.71894313284
scalar MyScenario.node[148].appl 	generatedWSMs 	0
scalar MyScenario.node[148].appl 	receivedWSMs 	0
scalar MyScenario.node[148].appl 	generatedBSMs 	0
scalar MyScenario.node[148].appl 	receivedBSMs 	0
scalar MyScenario.node[148].appl 	generatedWSAs 	0
scalar MyScenario.node[148].appl 	receivedWSAs 	0
scalar MyScenario.node[148].nic.phy80211p 	busyTime 	2.6264150943396e-05
scalar MyScenario.node[148].nic.mac1609_4 	ReceivedUnicastPackets 	0
scalar MyScenario.node[148].nic.mac1609_4 	ReceivedBroadcasts 	0
scalar MyScenario.node[148].nic.mac1609_4 	SentPackets 	0
scalar MyScenario.node[148].nic.mac1609_4 	SNIRLostPackets 	6
scalar MyScenario.node[148].nic.mac1609_4 	RXTXLostPackets 	0
scalar MyScenario.node[148].nic.mac1609_4 	TotalLostPackets 	6
scalar MyScenario.node[148].nic.mac1609_4 	DroppedPacketsInMac 	0
scalar MyScenario.node[148].nic.mac1609_4 	TooLittleTime 	0
scalar MyScenario.node[148].nic.mac1609_4 	TimesIntoBackoff 	0
scalar MyScenario.node[148].nic.mac1609_4 	SlotsBackoff 	0
scalar MyScenario.node[148].nic.mac1609_4 	NumInternalContention 	0
scalar MyScenario.node[148].nic.mac1609_4 	totalBusyTime 	0.000464
scalar MyScenario.node[148].veinsmobility 	startTime 	1
scalar MyScenario.node[148].veinsmobility 	totalTime 	52
scalar MyScenario.node[148].veinsmobility 	stopTime 	54
scalar MyScenario.node[148].veinsmobility 	minSpeed 	2.0020230700029
scalar MyScenario.node[148].veinsmobility 	maxSpeed 	13.886514753965
scalar MyScenario.node[148].veinsmobility 	totalDistance 	582.71882796796
scalar MyScenario.node[148].veinsmobility 	totalCO2Emission 	167.39964335977
scalar MyScenario.node[320].appl 	generatedWSMs 	0
scalar MyScenario.node[320].appl 	receivedWSMs 	0
scalar MyScenario.node[320].appl 	generatedBSMs 	0
scalar MyScenario.node[320].appl 	receivedBSMs 	0
scalar MyScenario.node[320].appl 	generatedWSAs 	0
scalar MyScenario.node[320].appl 	receivedWSAs 	0
scalar MyScenario.node[320].nic.phy80211p 	busyTime 	7.424e-05
scalar MyScenario.node[320].nic.mac1609_4 	ReceivedUnicastPackets 	0
scalar MyScenario.node[320].nic.mac1609_4 	ReceivedBroadcasts 	0
scalar MyScenario.node[320].nic.mac1609_4 	SentPackets 	0
scalar MyScenario.node[320].nic.mac1609_4 	SNIRLostPackets 	16
scalar MyScenario.node[320].nic.mac1609_4 	RXTXLostPackets 	0
scalar MyScenario.node[320].nic.mac1609_4 	TotalLostPackets 	16
scalar MyScenario.node[320].nic.mac1609_4 	DroppedPacketsInMac 	0
scalar MyScenario.node[320].nic.mac1609_4 	TooLittleTime 	0
scalar MyScenario.node[320].nic.mac1609_4 	TimesIntoBackoff 	0
scalar MyScenario.node[320].nic.mac1609_4 	SlotsBackoff 	0
scalar MyScenario.node[320].nic.mac1609_4 	NumInternalContention 	0
scalar MyScenario.node[320].nic.mac1609_4 	totalBusyTime 	0.001856
scalar MyScenario.node[320].veinsmobility 	startTime 	4
scalar MyScenario.node[320].veinsmobility 	totalTime 	49
scalar MyScenario.node[320].veinsmobility 	stopTime 	54
scalar MyScenario.node[320].veinsmobility 	minSpeed 	1.3939458170673
scalar MyScenario.node[320].veinsmobility 	maxSpeed 	13.883223287808
scalar MyScenario.node[320].veinsmobility 	totalDistance 	570.94020978562
scalar MyScenario.node[320].veinsmobility 	totalCO2Emission 	143.8183549408
scalar MyScenario.node[226].appl 	generatedWSMs 	0
scalar MyScenario.node[226].appl 	receivedWSMs 	0
scalar MyScenario.node[226].appl 	generatedBSMs 	0
scalar MyScenario.node[226].appl 	receivedBSMs 	0
scalar MyScenario.node[226].appl 	generatedWSAs 	0
scalar MyScenario.node[226].appl 	receivedWSAs 	0
scalar MyScenario.node[226].nic.phy80211p 	busyTime 	2.1481481481481e-05
scalar MyScenario.node[226].nic.mac1609_4 	ReceivedUnicastPackets 	0
scalar MyScenario.node[226].nic.mac1609_4 	ReceivedBroadcasts 	0
scalar MyScenario.node[226].nic.mac1609_4 	SentPackets 	0
scalar MyScenario.node[226].nic.mac1609_4 	SNIRLostPackets 	5
scalar MyScenario.node[226].nic.mac1609_4 	RXTXLostPackets 	0
scalar MyScenario.node[226].nic.mac1609_4 	TotalLostPackets 	5
scalar MyScenario.node[226].nic.mac1609_4 	DroppedPacketsInMac 	0
scalar MyScenario.node[226].nic.mac1609_4 	TooLittleTime 	0
scalar MyScenario.node[226].nic.mac1609_4 	TimesIntoBackoff 	0
scalar MyScenario.node[226].nic.mac1609_4 	SlotsBackoff 	0
scalar MyScenario.node[226].nic.mac1609_4 	NumInternalContention 	0
scalar MyScenario.node[226].nic.mac1609_4 	totalBusyTime 	0.000232
scalar MyScenario.node[226].veinsmobility 	startTime 	1
scalar MyScenario.node[226].veinsmobility 	totalTime 	53
scalar MyScenario.node[226].veinsmobility 	stopTime 	55
scalar MyScenario.node[226].veinsmobility 	minSpeed 	0.48909143031386
scalar MyScenario.node[226].veinsmobility 	maxSpeed 	13.89900019886
scalar MyScenario.node[226].veinsmobility 	totalDistance 	579.30158966078
scalar MyScenario.node[226].veinsmobility 	totalCO2Emission 	149.46524812347
scalar MyScenario.node[118].appl 	generatedWSMs 	1
scalar MyScenario.node[118].appl 	receivedWSMs 	9
scalar MyScenario.node[118].appl 	generatedBSMs 	0
scalar MyScenario.node[118].appl 	receivedBSMs 	0
scalar MyScenario.node[118].appl 	generatedWSAs 	0
scalar MyScenario.node[118].appl 	receivedWSAs 	0
scalar MyScenario.node[118].nic.phy80211p 	busyTime 	0.00016450909090909
scalar MyScenario.node[118].nic.mac1609_4 	ReceivedUnicastPackets 	0
scalar MyScenario.node[118].nic.mac1609_4 	ReceivedBroadcasts 	9
scalar MyScenario.node[118].nic.mac1609_4 	SentPackets 	1
scalar MyScenario.node[118].nic.mac1609_4 	SNIRLostPackets 	30
scalar MyScenario.node[118].nic.mac1609_4 	RXTXLostPackets 	17
scalar MyScenario.node[118].nic.mac1609_4 	TotalLostPackets 	47
scalar MyScenario.node[118].nic.mac1609_4 	DroppedPacketsInMac 	0
scalar MyScenario.node[118].nic.mac1609_4 	TooLittleTime 	0
scalar MyScenario.node[118].nic.mac1609_4 	TimesIntoBackoff 	1
scalar MyScenario.node[118].nic.mac1609_4 	SlotsBackoff 	2
scalar MyScenario.node[118].nic.mac1609_4 	NumInternalContention 	0
scalar MyScenario.node[118].nic.mac1609_4 	totalBusyTime 	0.004873203131
scalar MyScenario.node[118].veinsmobility 	startTime 	1
scalar MyScenario.node[118].veinsmobility 	totalTime 	54
scalar MyScenario.node[118].veinsmobility 	stopTime 	56
scalar MyScenario.node[118].veinsmobility 	minSpeed 	2.9064845624429e-07
scalar MyScenario.node[118].veinsmobility 	maxSpeed 	13.896063310327
scalar MyScenario.node[118].veinsmobility 	totalDistance 	374.18424538023
scalar MyScenario.node[118].veinsmobility 	totalCO2Emission 	126.12570960202
scalar MyScenario.node[93].appl 	generatedWSMs 	1
scalar MyScenario.node[93].appl 	receivedWSMs 	1
scalar MyScenario.node[93].appl 	generatedBSMs 	0
scalar MyScenario.node[93].appl 	receivedBSMs 	0
scalar MyScenario.node[93].appl 	generatedWSAs 	0
scalar MyScenario.node[93].appl 	receivedWSAs 	0
scalar MyScenario.node[93].nic.phy80211p 	busyTime 	5.0618181818182e-05
scalar MyScenario.node[93].nic.mac1609_4 	ReceivedUnicastPackets 	0
scalar MyScenario.node[93].nic.mac1609_4 	ReceivedBroadcasts 	1
scalar MyScenario.node[93].nic.mac1609_4 	SentPackets 	1
scalar MyScenario.node[93].nic.mac1609_4 	SNIRLostPackets 	11
scalar MyScenario.node[93].nic.mac1609_4 	RXTXLostPackets 	15
scalar MyScenario.node[93].nic.mac1609_4 	TotalLostPackets 	26
scalar MyScenario.node[93].nic.mac1609_4 	DroppedPacketsInMac 	0
scalar MyScenario.node[93].nic.mac1609_4 	TooLittleTime 	0
scalar MyScenario.node[93].nic.mac1609_4 	TimesIntoBackoff 	1
scalar MyScenario.node[93].nic.mac1609_4 	SlotsBackoff 	0
scalar MyScenario.node[93].nic.mac1609_4 	NumInternalContention 	0
scalar MyScenario.node[93].nic.mac1609_4 	totalBusyTime 	0.001393052295
scalar MyScenario.node[93].veinsmobility 	startTime 	1
scalar MyScenario.node[93].veinsmobility 	totalTime 	54
scalar MyScenario.node[93].veinsmobility 	stopTime 	56
scalar MyScenario.node[93].veinsmobility 	minSpeed 	2.2128017546376
scalar MyScenario.node[93].veinsmobility 	maxSpeed 	13.870323781134
scalar MyScenario.node[93].veinsmobility 	totalDistance 	674.23213018513
scalar MyScenario.node[93].veinsmobility 	totalCO2Emission 	143.76018549576
scalar MyScenario.node[381].appl 	generatedWSMs 	1
scalar MyScenario.node[381].appl 	receivedWSMs 	3
scalar MyScenario.node[381].appl 	generatedBSMs 	0
scalar MyScenario.node[381].appl 	receivedBSMs 	0
scalar MyScenario.node[381].appl 	generatedWSAs 	0
scalar MyScenario.node[381].appl 	receivedWSAs 	0
scalar MyScenario.node[381].nic.phy80211p 	busyTime 	0.00017991836734694
scalar MyScenario.node[381].nic.mac1609_4 	ReceivedUnicastPackets 	0
scalar MyScenario.node[381].nic.mac1609_4 	ReceivedBroadcasts 	3
[...]
scalar MyScenario.node[111].nic.mac1609_4 	TooLittleTime 	0
scalar MyScenario.node[111].nic.mac1609_4 	TimesIntoBackoff 	1
scalar MyScenario.node[111].nic.mac1609_4 	SlotsBackoff 	0
scalar MyScenario.node[111].nic.mac1609_4 	NumInternalContention 	0
scalar MyScenario.node[111].nic.mac1609_4 	totalBusyTime 	0.004177
scalar MyScenario.node[111].veinsmobility 	startTime 	1
scalar MyScenario.node[111].veinsmobility 	totalTime 	169
scalar MyScenario.node[111].veinsmobility 	stopTime 	171
scalar MyScenario.node[111].veinsmobility 	minSpeed 	5.240104671894e-06
scalar MyScenario.node[111].veinsmobility 	maxSpeed 	13.840148026426
scalar MyScenario.node[111].veinsmobility 	totalDistance 	1764.1229021232
scalar MyScenario.node[111].veinsmobility 	totalCO2Emission 	532.82247726894
scalar MyScenario.node[289].appl 	generatedWSMs 	1
scalar MyScenario.node[289].appl 	receivedWSMs 	33
scalar MyScenario.node[289].appl 	generatedBSMs 	0
scalar MyScenario.node[289].appl 	receivedBSMs 	0
scalar MyScenario.node[289].appl 	generatedWSAs 	0
scalar MyScenario.node[289].appl 	receivedWSAs 	0
scalar MyScenario.node[289].nic.phy80211p 	busyTime 	9.5285714285714e-05
scalar MyScenario.node[289].nic.mac1609_4 	ReceivedUnicastPackets 	0
scalar MyScenario.node[289].nic.mac1609_4 	ReceivedBroadcasts 	33
scalar MyScenario.node[289].nic.mac1609_4 	SentPackets 	1
scalar MyScenario.node[289].nic.mac1609_4 	SNIRLostPackets 	36
scalar MyScenario.node[289].nic.mac1609_4 	RXTXLostPackets 	1
scalar MyScenario.node[289].nic.mac1609_4 	TotalLostPackets 	37
scalar MyScenario.node[289].nic.mac1609_4 	DroppedPacketsInMac 	0
scalar MyScenario.node[289].nic.mac1609_4 	TooLittleTime 	0
scalar MyScenario.node[289].nic.mac1609_4 	TimesIntoBackoff 	1
scalar MyScenario.node[289].nic.mac1609_4 	SlotsBackoff 	2
scalar MyScenario.node[289].nic.mac1609_4 	NumInternalContention 	0
scalar MyScenario.node[289].nic.mac1609_4 	totalBusyTime 	0.010441019553
scalar MyScenario.node[289].veinsmobility 	startTime 	4
scalar MyScenario.node[289].veinsmobility 	totalTime 	167
scalar MyScenario.node[289].veinsmobility 	stopTime 	172
scalar MyScenario.node[289].veinsmobility 	minSpeed 	3.9164076774465e-15
scalar MyScenario.node[289].veinsmobility 	maxSpeed 	13.887307999725
scalar MyScenario.node[289].veinsmobility 	totalDistance 	969.66663547959
scalar MyScenario.node[289].veinsmobility 	totalCO2Emission 	425.32036232829
scalar MyScenario.node[17].appl 	generatedWSMs 	0
scalar MyScenario.node[17].appl 	receivedWSMs 	0
scalar MyScenario.node[17].appl 	generatedBSMs 	0
scalar MyScenario.node[17].appl 	receivedBSMs 	0
scalar MyScenario.node[17].appl 	generatedWSAs 	0
scalar MyScenario.node[17].appl 	receivedWSAs 	0
scalar MyScenario.node[17].nic.phy80211p 	busyTime 	9.4418604651163e-06
scalar MyScenario.node[17].nic.mac1609_4 	ReceivedUnicastPackets 	0
scalar MyScenario.node[17].nic.mac1609_4 	ReceivedBroadcasts 	0
scalar MyScenario.node[17].nic.mac1609_4 	SentPackets 	0
scalar MyScenario.node[17].nic.mac1609_4 	SNIRLostPackets 	7
scalar MyScenario.node[17].nic.mac1609_4 	RXTXLostPackets 	0
scalar MyScenario.node[17].nic.mac1609_4 	TotalLostPackets 	7
scalar MyScenario.node[17].nic.mac1609_4 	DroppedPacketsInMac 	0
scalar MyScenario.node[17].nic.mac1609_4 	TooLittleTime 	0
scalar MyScenario.node[17].nic.mac1609_4 	TimesIntoBackoff 	0
scalar MyScenario.node[17].nic.mac1609_4 	SlotsBackoff 	0
scalar MyScenario.node[17].nic.mac1609_4 	NumInternalContention 	0
scalar MyScenario.node[17].nic.mac1609_4 	totalBusyTime 	0.000464002762
scalar MyScenario.node[17].veinsmobility 	startTime 	1
scalar MyScenario.node[17].veinsmobility 	totalTime 	171
scalar MyScenario.node[17].veinsmobility 	stopTime 	173
scalar MyScenario.node[17].veinsmobility 	minSpeed 	8.2893733597251e-05
scalar MyScenario.node[17].veinsmobility 	maxSpeed 	13.863631479093
scalar MyScenario.node[17].veinsmobility 	totalDistance 	1671.6465727662
scalar MyScenario.node[17].veinsmobility 	totalCO2Emission 	482.12505559388
scalar MyScenario.node[239].appl 	generatedWSMs 	0
scalar MyScenario.node[239].appl 	receivedWSMs 	0
scalar MyScenario.node[239].appl 	generatedBSMs 	0
scalar MyScenario.node[239].appl 	receivedBSMs 	0
scalar MyScenario.node[239].appl 	generatedWSAs 	0
scalar MyScenario.node[239].appl 	receivedWSAs 	0
scalar MyScenario.node[239].nic.phy80211p 	busyTime 	1.6376470588235e-05
scalar MyScenario.node[239].nic.mac1609_4 	ReceivedUnicastPackets 	0
scalar MyScenario.node[239].nic.mac1609_4 	ReceivedBroadcasts 	0
scalar MyScenario.node[239].nic.mac1609_4 	SentPackets 	0
scalar MyScenario.node[239].nic.mac1609_4 	SNIRLostPackets 	12
scalar MyScenario.node[239].nic.mac1609_4 	RXTXLostPackets 	0
scalar MyScenario.node[239].nic.mac1609_4 	TotalLostPackets 	12
scalar MyScenario.node[239].nic.mac1609_4 	DroppedPacketsInMac 	0
scalar MyScenario.node[239].nic.mac1609_4 	TooLittleTime 	0
scalar MyScenario.node[239].nic.mac1609_4 	TimesIntoBackoff 	0
scalar MyScenario.node[239].nic.mac1609_4 	SlotsBackoff 	0
scalar MyScenario.node[239].nic.mac1609_4 	NumInternalContention 	0
scalar MyScenario.node[239].nic.mac1609_4 	totalBusyTime 	0.000696
scalar MyScenario.node[239].veinsmobility 	startTime 	4
scalar MyScenario.node[239].veinsmobility 	totalTime 	169
scalar MyScenario.node[239].veinsmobility 	stopTime 	174
scalar MyScenario.node[239].veinsmobility 	minSpeed 	1.9573601656495e-06
scalar MyScenario.node[239].veinsmobility 	maxSpeed 	13.788780000387
scalar MyScenario.node[239].veinsmobility 	totalDistance 	1274.1017660488
scalar MyScenario.node[239].veinsmobility 	totalCO2Emission 	471.97660373115
scalar MyScenario.node[291].appl 	generatedWSMs 	1
scalar MyScenario.node[291].appl 	receivedWSMs 	35
scalar MyScenario.node[291].appl 	generatedBSMs 	0
scalar MyScenario.node[291].appl 	receivedBSMs 	0
scalar MyScenario.node[291].appl 	generatedWSAs 	0
scalar MyScenario.node[291].appl 	receivedWSAs 	0
scalar MyScenario.node[291].nic.phy80211p 	busyTime 	0.00010235294117647
scalar MyScenario.node[291].nic.mac1609_4 	ReceivedUnicastPackets 	0
scalar MyScenario.node[291].nic.mac1609_4 	ReceivedBroadcasts 	35
scalar MyScenario.node[291].nic.mac1609_4 	SentPackets 	1
scalar MyScenario.node[291].nic.mac1609_4 	SNIRLostPackets 	40
scalar MyScenario.node[291].nic.mac1609_4 	RXTXLostPackets 	13
scalar MyScenario.node[291].nic.mac1609_4 	TotalLostPackets 	53
scalar MyScenario.node[291].nic.mac1609_4 	DroppedPacketsInMac 	0
scalar MyScenario.node[291].nic.mac1609_4 	TooLittleTime 	0
scalar MyScenario.node[291].nic.mac1609_4 	TimesIntoBackoff 	1
scalar MyScenario.node[291].nic.mac1609_4 	SlotsBackoff 	2
scalar MyScenario.node[291].nic.mac1609_4 	NumInternalContention 	0
scalar MyScenario.node[291].nic.mac1609_4 	totalBusyTime 	0.012761123658
scalar MyScenario.node[291].veinsmobility 	startTime 	4
scalar MyScenario.node[291].veinsmobility 	totalTime 	169
scalar MyScenario.node[291].veinsmobility 	stopTime 	174
scalar MyScenario.node[291].veinsmobility 	minSpeed 	1.8529780918945e-07
scalar MyScenario.node[291].veinsmobility 	maxSpeed 	13.873893200606
scalar MyScenario.node[291].veinsmobility 	totalDistance 	1056.5345811252
scalar MyScenario.node[291].veinsmobility 	totalCO2Emission 	464.34964614441
scalar MyScenario.node[388].appl 	generatedWSMs 	0
scalar MyScenario.node[388].appl 	receivedWSMs 	0
scalar MyScenario.node[388].appl 	generatedBSMs 	0
scalar MyScenario.node[388].appl 	receivedBSMs 	0
scalar MyScenario.node[388].appl 	generatedWSAs 	0
scalar MyScenario.node[388].appl 	receivedWSAs 	0
scalar MyScenario.node[388].nic.phy80211p 	busyTime 	6.9461077844311e-06
scalar MyScenario.node[388].nic.mac1609_4 	ReceivedUnicastPackets 	0
scalar MyScenario.node[388].nic.mac1609_4 	ReceivedBroadcasts 	0
scalar MyScenario.node[388].nic.mac1609_4 	SentPackets 	0
scalar MyScenario.node[388].nic.mac1609_4 	SNIRLostPackets 	5
scalar MyScenario.node[388].nic.mac1609_4 	RXTXLostPackets 	0
scalar MyScenario.node[388].nic.mac1609_4 	TotalLostPackets 	5
scalar MyScenario.node[388].nic.mac1609_4 	DroppedPacketsInMac 	0
scalar MyScenario.node[388].nic.mac1609_4 	TooLittleTime 	0
scalar MyScenario.node[388].nic.mac1609_4 	TimesIntoBackoff 	0
scalar MyScenario.node[388].nic.mac1609_4 	SlotsBackoff 	0
scalar MyScenario.node[388].nic.mac1609_4 	NumInternalContention 	0
scalar MyScenario.node[388].nic.mac1609_4 	totalBusyTime 	0.000696
scalar MyScenario.node[388].veinsmobility 	startTime 	7
scalar MyScenario.node[388].veinsmobility 	totalTime 	166
scalar MyScenario.node[388].veinsmobility 	stopTime 	174
scalar MyScenario.node[388].veinsmobility 	minSpeed 	0.0014350191580112
scalar MyScenario.node[388].veinsmobility 	maxSpeed 	13.850057543023
scalar MyScenario.node[388].veinsmobility 	totalDistance 	1261.2916774242
scalar MyScenario.node[388].veinsmobility 	totalCO2Emission 	479.04243180158
scalar MyScenario.node[123].appl 	generatedWSMs 	0
scalar MyScenario.node[123].appl 	receivedWSMs 	0
scalar MyScenario.node[123].appl 	generatedBSMs 	0
scalar MyScenario.node[123].appl 	receivedBSMs 	0
scalar MyScenario.node[123].appl 	generatedWSAs 	0
scalar MyScenario.node[123].appl 	receivedWSAs 	0
scalar MyScenario.node[123].nic.phy80211p 	busyTime 	3.9771428571429e-06
scalar MyScenario.node[123].nic.mac1609_4 	ReceivedUnicastPackets 	0
scalar MyScenario.node[123].nic.mac1609_4 	ReceivedBroadcasts 	0
scalar MyScenario.node[123].nic.mac1609_4 	SentPackets 	0
scalar MyScenario.node[123].nic.mac1609_4 	SNIRLostPackets 	3
scalar MyScenario.node[123].nic.mac1609_4 	RXTXLostPackets 	0
scalar MyScenario.node[123].nic.mac1609_4 	TotalLostPackets 	3
scalar MyScenario.node[123].nic.mac1609_4 	DroppedPacketsInMac 	0
scalar MyScenario.node[123].nic.mac1609_4 	TooLittleTime 	0
scalar MyScenario.node[123].nic.mac1609_4 	TimesIntoBackoff 	0
scalar MyScenario.node[123].nic.mac1609_4 	SlotsBackoff 	0
scalar MyScenario.node[123].nic.mac1609_4 	NumInternalContention 	0
scalar MyScenario.node[123].nic.mac1609_4 	totalBusyTime 	0.000232
scalar MyScenario.node[123].veinsmobility 	startTime 	1
scalar MyScenario.node[123].veinsmobility 	totalTime 	174
scalar MyScenario.node[123].veinsmobility 	stopTime 	176
scalar MyScenario.node[123].veinsmobility 	minSpeed 	0.0096782716885187
scalar MyScenario.node[123].veinsmobility 	maxSpeed 	13.88802437752
scalar MyScenario.node[123].veinsmobility 	totalDistance 	1570.6272614848
scalar MyScenario.node[123].veinsmobility 	totalCO2Emission 	485.89028685311
scalar MyScenario.node[18].appl 	generatedWSMs 	0
scalar MyScenario.node[18].appl 	receivedWSMs 	0
scalar MyScenario.node[18].appl 	generatedBSMs 	0
scalar MyScenario.node[18].appl 	receivedBSMs 	0
scalar MyScenario.node[18].appl 	generatedWSAs 	0
scalar MyScenario.node[18].appl 	receivedWSAs 	0
scalar MyScenario.node[18].nic.phy80211p 	busyTime 	1.5818181818182e-05
scalar MyScenario.node[18].nic.mac1609_4 	ReceivedUnicastPackets 	0
scalar MyScenario.node[18].nic.mac1609_4 	ReceivedBroadcasts 	0
scalar MyScenario.node[18].nic.mac1609_4 	SentPackets 	0
scalar MyScenario.node[18].nic.mac1609_4 	SNIRLostPackets 	12
scalar MyScenario.node[18].nic.mac1609_4 	RXTXLostPackets 	0
scalar MyScenario.node[18].nic.mac1609_4 	TotalLostPackets 	12
scalar MyScenario.node[18].nic.mac1609_4 	DroppedPacketsInMac 	0
scalar MyScenario.node[18].nic.mac1609_4 	TooLittleTime 	0
scalar MyScenario.node[18].nic.mac1609_4 	TimesIntoBackoff 	0
scalar MyScenario.node[18].nic.mac1609_4 	SlotsBackoff 	0
scalar MyScenario.node[18].nic.mac1609_4 	NumInternalContention 	0
scalar MyScenario.node[18].nic.mac1609_4 	totalBusyTime 	0.000696
scalar MyScenario.node[18].veinsmobility 	startTime 	1
scalar MyScenario.node[18].veinsmobility 	totalTime 	175
scalar MyScenario.node[18].veinsmobility 	stopTime 	177
scalar MyScenario.node[18].veinsmobility 	minSpeed 	0.00049098394975524
scalar MyScenario.node[18].veinsmobility 	maxSpeed 	13.865254096664
scalar MyScenario.node[18].veinsmobility 	totalDistance 	1358.2462940598
scalar MyScenario.node[18].veinsmobility 	totalCO2Emission 	516.67516863613
scalar MyScenario.node[347].appl 	generatedWSMs 	1
scalar MyScenario.node[347].appl 	receivedWSMs 	9
scalar MyScenario.node[347].appl 	generatedBSMs 	0
scalar MyScenario.node[347].appl 	receivedBSMs 	0
scalar MyScenario.node[347].appl 	generatedWSAs 	0
scalar MyScenario.node[347].appl 	receivedWSAs 	0
scalar MyScenario.node[347].nic.phy80211p 	busyTime 	7.9954802259887e-05
scalar MyScenario.node[347].nic.mac1609_4 	ReceivedUnicastPackets 	0
scalar MyScenario.node[347].nic.mac1609_4 	ReceivedBroadcasts 	9
scalar MyScenario.node[347].nic.mac1609_4 	SentPackets 	1
scalar MyScenario.node[347].nic.mac1609_4 	SNIRLostPackets 	52
scalar MyScenario.node[347].nic.mac1609_4 	RXTXLostPackets 	7
scalar MyScenario.node[347].nic.mac1609_4 	TotalLostPackets 	59
scalar MyScenario.node[347].nic.mac1609_4 	DroppedPacketsInMac 	0
scalar MyScenario.node[347].nic.mac1609_4 	TooLittleTime 	0
scalar MyScenario.node[347].nic.mac1609_4 	TimesIntoBackoff 	1
scalar MyScenario.node[347].nic.mac1609_4 	SlotsBackoff 	0
scalar MyScenario.node[347].nic.mac1609_4 	NumInternalContention 	0
scalar MyScenario.node[347].nic.mac1609_4 	totalBusyTime 	0.005105051643
scalar MyScenario.node[347].veinsmobility 	startTime 	4
scalar MyScenario.node[347].veinsmobility 	totalTime 	176
scalar MyScenario.node[347].veinsmobility 	stopTime 	181
scalar MyScenario.node[347].veinsmobility 	minSpeed 	0
scalar MyScenario.node[347].veinsmobility 	maxSpeed 	13.814511655667
scalar MyScenario.node[347].veinsmobility 	totalDistance 	1078.4616341896
scalar MyScenario.node[347].veinsmobility 	totalCO2Emission 	437.19646653322
scalar MyScenario.node[237].appl 	generatedWSMs 	1
scalar MyScenario.node[237].appl 	receivedWSMs 	6
scalar MyScenario.node[237].appl 	generatedBSMs 	0
scalar MyScenario.node[237].appl 	receivedBSMs 	0
scalar MyScenario.node[237].appl 	generatedWSAs 	0
scalar MyScenario.node[237].appl 	receivedWSAs 	0
scalar MyScenario.node[237].nic.phy80211p 	busyTime 	3.0426229508197e-05
scalar MyScenario.node[237].nic.mac1609_4 	ReceivedUnicastPackets 	0
scalar MyScenario.node[237].nic.mac1609_4 	ReceivedBroadcasts 	6
scalar MyScenario.node[237].nic.mac1609_4 	SentPackets 	1
scalar MyScenario.node[237].nic.mac1609_4 	SNIRLostPackets 	18
scalar MyScenario.node[237].nic.mac1609_4 	RXTXLostPackets 	4
scalar MyScenario.node[237].nic.mac1609_4 	TotalLostPackets 	22
scalar MyScenario.node[237].nic.mac1609_4 	DroppedPacketsInMac 	0
scalar MyScenario.node[237].nic.mac1609_4 	TooLittleTime 	0
scalar MyScenario.node[237].nic.mac1609_4 	TimesIntoBackoff 	1
scalar MyScenario.node[237].nic.mac1609_4 	SlotsBackoff 	1
scalar MyScenario.node[237].nic.mac1609_4 	NumInternalContention 	0
scalar MyScenario.node[237].nic.mac1609_4 	totalBusyTime 	0.002553
scalar MyScenario.node[237].veinsmobility 	startTime 	3
scalar MyScenario.node[237].veinsmobility 	totalTime 	182
scalar MyScenario.node[237].veinsmobility 	stopTime 	186
scalar MyScenario.node[237].veinsmobility 	minSpeed 	4.7365695528844e-08
scalar MyScenario.node[237].veinsmobility 	maxSpeed 	13.879659769079
scalar MyScenario.node[237].veinsmobility 	totalDistance 	1368.5239080029
scalar MyScenario.node[237].veinsmobility 	totalCO2Emission 	514.97935194681
scalar MyScenario.node[265].appl 	generatedWSMs 	1
scalar MyScenario.node[265].appl 	receivedWSMs 	29
scalar MyScenario.node[265].appl 	generatedBSMs 	0
scalar MyScenario.node[265].appl 	receivedBSMs 	0
scalar MyScenario.node[265].appl 	generatedWSAs 	0
scalar MyScenario.node[265].appl 	receivedWSAs 	0
scalar MyScenario.node[265].nic.phy80211p 	busyTime 	8.6207650273224e-05
scalar MyScenario.node[265].nic.mac1609_4 	ReceivedUnicastPackets 	0
scalar MyScenario.node[265].nic.mac1609_4 	ReceivedBroadcasts 	29
scalar MyScenario.node[265].nic.mac1609_4 	SentPackets 	1
scalar MyScenario.node[265].nic.mac1609_4 	SNIRLostPackets 	39
scalar MyScenario.node[265].nic.mac1609_4 	RXTXLostPackets 	3
scalar MyScenario.node[265].nic.mac1609_4 	TotalLostPackets 	42
scalar MyScenario.node[265].nic.mac1609_4 	DroppedPacketsInMac 	0
scalar MyScenario.node[265].nic.mac1609_4 	TooLittleTime 	0
scalar MyScenario.node[265].nic.mac1609_4 	TimesIntoBackoff 	1
scalar MyScenario.node[265].nic.mac1609_4 	SlotsBackoff 	2
scalar MyScenario.node[265].nic.mac1609_4 	NumInternalContention 	0
scalar MyScenario.node[265].nic.mac1609_4 	totalBusyTime 	0.010905
scalar MyScenario.node[265].veinsmobility 	startTime 	4
scalar MyScenario.node[265].veinsmobility 	totalTime 	182
scalar MyScenario.node[265].veinsmobility 	stopTime 	187
scalar MyScenario.node[265].veinsmobility 	minSpeed 	4.4703989313176e-12
scalar MyScenario.node[265].veinsmobility 	maxSpeed 	13.857296961872
scalar MyScenario.node[265].veinsmobility 	totalDistance 	1174.6406155246
scalar MyScenario.node[265].veinsmobility 	totalCO2Emission 	471.49537370465
scalar MyScenario.node[220].appl 	generatedWSMs 	1
scalar MyScenario.node[220].appl 	receivedWSMs 	4
scalar MyScenario.node[220].appl 	generatedBSMs 	0
scalar MyScenario.node[220].appl 	receivedBSMs 	0
scalar MyScenario.node[220].appl 	generatedWSAs 	0
scalar MyScenario.node[220].appl 	receivedWSAs 	0
scalar MyScenario.node[220].nic.phy80211p 	busyTime 	9.7684210526316e-06
scalar MyScenario.node[220].nic.mac1609_4 	ReceivedUnicastPackets 	0
scalar MyScenario.node[220].nic.mac1609_4 	ReceivedBroadcasts 	4
scalar MyScenario.node[220].nic.mac1609_4 	SentPackets 	1
scalar MyScenario.node[220].nic.mac1609_4 	SNIRLostPackets 	4
scalar MyScenario.node[220].nic.mac1609_4 	RXTXLostPackets 	14
scalar MyScenario.node[220].nic.mac1609_4 	TotalLostPackets 	18
scalar MyScenario.node[220].nic.mac1609_4 	DroppedPacketsInMac 	0
scalar MyScenario.node[220].nic.mac1609_4 	TooLittleTime 	0
scalar MyScenario.node[220].nic.mac1609_4 	TimesIntoBackoff 	1
scalar MyScenario.node[220].nic.mac1609_4 	SlotsBackoff 	0
scalar MyScenario.node[220].nic.mac1609_4 	NumInternalContention 	0
scalar MyScenario.node[220].nic.mac1609_4 	totalBusyTime 	0.001393000478
scalar MyScenario.node[220].veinsmobility 	startTime 	1
scalar MyScenario.node[220].veinsmobility 	totalTime 	189
scalar MyScenario.node[220].veinsmobility 	stopTime 	191
scalar MyScenario.node[220].veinsmobility 	minSpeed 	0.00020279601256217
scalar MyScenario.node[220].veinsmobility 	maxSpeed 	13.89518995611
scalar MyScenario.node[220].veinsmobility 	totalDistance 	1665.6699384864
scalar MyScenario.node[220].veinsmobility 	totalCO2Emission 	553.90340833055
scalar MyScenario.node[319].appl 	generatedWSMs 	0
scalar MyScenario.node[319].appl 	receivedWSMs 	0
scalar MyScenario.node[319].appl 	generatedBSMs 	0
scalar MyScenario.node[319].appl 	receivedBSMs 	0
scalar MyScenario.node[319].appl 	generatedWSAs 	0
scalar MyScenario.node[319].appl 	receivedWSAs 	0
scalar MyScenario.node[319].nic.phy80211p 	busyTime 	0
scalar MyScenario.node[319].nic.mac1609_4 	ReceivedUnicastPackets 	0
scalar MyScenario.node[319].nic.mac1609_4 	ReceivedBroadcasts 	0
scalar MyScenario.node[319].nic.mac1609_4 	SentPackets 	0
scalar MyScenario.node[319].nic.mac1609_4 	SNIRLostPackets 	0
scalar MyScenario.node[319].nic.mac1609_4 	RXTXLostPackets 	0
scalar MyScenario.node[319].nic.mac1609_4 	TotalLostPackets 	0
scalar MyScenario.node[319].nic.mac1609_4 	DroppedPacketsInMac 	0
scalar MyScenario.node[319].nic.mac1609_4 	TooLittleTime 	0
scalar MyScenario.node[319].nic.mac1609_4 	TimesIntoBackoff 	0
scalar MyScenario.node[319].nic.mac1609_4 	SlotsBackoff 	0
scalar MyScenario.node[319].nic.mac1609_4 	NumInternalContention 	0
scalar MyScenario.node[319].nic.mac1609_4 	totalBusyTime 	0
scalar MyScenario.node[319].veinsmobility 	startTime 	4
scalar MyScenario.node[319].veinsmobility 	totalTime 	187
scalar MyScenario.node[319].veinsmobility 	stopTime 	191
scalar MyScenario.node[319].veinsmobility 	minSpeed 	0.14446768266291
scalar MyScenario.node[319].veinsmobility 	maxSpeed 	13.850649692537
scalar MyScenario.node[319].veinsmobility 	totalDistance 	1678.0817765293
scalar MyScenario.node[319].veinsmobility 	totalCO2Emission 	516.42115041369
