version 2
run General-25-20170829-17:42:40-8100
attr configname General
attr datetime 20170829-17:42:40
attr density 300
attr experiment General
attr inifile omnetpp.ini
attr iterationvars $density=300
attr iterationvars2 "$density=300, $repetition=5"
attr measurement $density=300
attr network com.liborio.pi.MyScenario
attr processid 8100
attr repetition 5
attr replication #5
attr resultdir results
attr runnumber 25
attr seedset 5
param **.coreDebug false
param **.debug false
param *.**.nic.mac1609_4.bitrate 6Mbps
param *.**.nic.mac1609_4.txPower 20mW
param *.**.nic.mac1609_4.useServiceChannel true
param *.**.nic.phy80211p.analogueModels "xmldoc(\"config.xml\")"
param *.**.nic.phy80211p.antenna "xmldoc(\"antenna.xml\", \"/root/Antenna[@id='monopole']\")"
param *.**.nic.phy80211p.decider "xmldoc(\"config.xml\")"
param *.**.nic.phy80211p.sensitivity -84.39dBm
param *.**.nic.phy80211p.thermalNoise -110dBm
param *.**.nic.phy80211p.usePropagationDelay true
param *.**.nic.phy80211p.useThermalNoise true
param *.annotations.draw true
param *.connectionManager.drawMaxIntfDist false
param *.connectionManager.maxInterfDist 2600m
param *.connectionManager.sendDirect true
param *.manager.autoShutdown true
param *.manager.host "\"localhost\""
param *.manager.launchConfig "xmldoc(string(${density = 100, 200, 300, 400})+\"_\"+ string(${repetition})+\".launchd.xml\")"
param *.manager.port 9999
param *.manager.updateInterval 1s
param *.node[*].appl.beaconInterval 1s
param *.node[*].appl.dataOnSch true
param *.node[*].appl.headerLength "80 bit"
param *.node[*].appl.isSource false
param *.node[*].appl.numMsgs 100
param *.node[*].appl.sendBeacons false
param *.node[*].appl.stopTrafficTime 130s
param *.node[*].appl.wsmInterval 3s
param *.node[*].applType "\"Flooding\""
param *.node[*].veinsmobility.x 0
param *.node[*].veinsmobility.y 0
param *.node[*].veinsmobility.z 1.895
param *.node[*].veinsmobilityType.debug true
param *.node[0].appl.isSource true
param *.playgroundSizeX 2500m
param *.playgroundSizeY 2500m
param *.playgroundSizeZ 50m

scalar . 	density 	300
scalar MyScenario.node[118].appl 	generatedWSMs 	0
scalar MyScenario.node[118].appl 	receivedWSMs 	0
scalar MyScenario.node[118].appl 	generatedBSMs 	0
scalar MyScenario.node[118].appl 	receivedBSMs 	0
scalar MyScenario.node[118].appl 	generatedWSAs 	0
scalar MyScenario.node[118].appl 	receivedWSAs 	0
scalar MyScenario.node[118].nic.phy80211p 	busyTime 	0
scalar MyScenario.node[118].nic.mac1609_4 	ReceivedUnicastPackets 	0
scalar MyScenario.node[118].nic.mac1609_4 	ReceivedBroadcasts 	0
scalar MyScenario.node[118].nic.mac1609_4 	SentPackets 	0
scalar MyScenario.node[118].nic.mac1609_4 	SNIRLostPackets 	0
scalar MyScenario.node[118].nic.mac1609_4 	RXTXLostPackets 	0
scalar MyScenario.node[118].nic.mac1609_4 	TotalLostPackets 	0
scalar MyScenario.node[118].nic.mac1609_4 	DroppedPacketsInMac 	0
scalar MyScenario.node[118].nic.mac1609_4 	TooLittleTime 	0
scalar MyScenario.node[118].nic.mac1609_4 	TimesIntoBackoff 	0
scalar MyScenario.node[118].nic.mac1609_4 	SlotsBackoff 	0
scalar MyScenario.node[118].nic.mac1609_4 	NumInternalContention 	0
scalar MyScenario.node[118].nic.mac1609_4 	totalBusyTime 	0
scalar MyScenario.node[118].veinsmobility 	startTime 	1
scalar MyScenario.node[118].veinsmobility 	totalTime 	9
scalar MyScenario.node[118].veinsmobility 	stopTime 	11
scalar MyScenario.node[118].veinsmobility 	minSpeed 	1.7408633813262
scalar MyScenario.node[118].veinsmobility 	maxSpeed 	13.83428230579
scalar MyScenario.node[118].veinsmobility 	totalDistance 	79.361560128606
scalar MyScenario.node[118].veinsmobility 	totalCO2Emission 	38.60770634679
scalar MyScenario.node[35].appl 	generatedWSMs 	0
scalar MyScenario.node[35].appl 	receivedWSMs 	0
scalar MyScenario.node[35].appl 	generatedBSMs 	0
scalar MyScenario.node[35].appl 	receivedBSMs 	0
scalar MyScenario.node[35].appl 	generatedWSAs 	0
scalar MyScenario.node[35].appl 	receivedWSAs 	0
scalar MyScenario.node[35].nic.phy80211p 	busyTime 	0.00021090909090909
scalar MyScenario.node[35].nic.mac1609_4 	ReceivedUnicastPackets 	0
scalar MyScenario.node[35].nic.mac1609_4 	ReceivedBroadcasts 	0
scalar MyScenario.node[35].nic.mac1609_4 	SentPackets 	0
scalar MyScenario.node[35].nic.mac1609_4 	SNIRLostPackets 	10
scalar MyScenario.node[35].nic.mac1609_4 	RXTXLostPackets 	0
scalar MyScenario.node[35].nic.mac1609_4 	TotalLostPackets 	10
scalar MyScenario.node[35].nic.mac1609_4 	DroppedPacketsInMac 	0
scalar MyScenario.node[35].nic.mac1609_4 	TooLittleTime 	0
scalar MyScenario.node[35].nic.mac1609_4 	TimesIntoBackoff 	0
scalar MyScenario.node[35].nic.mac1609_4 	SlotsBackoff 	0
scalar MyScenario.node[35].nic.mac1609_4 	NumInternalContention 	0
scalar MyScenario.node[35].nic.mac1609_4 	totalBusyTime 	0.000696
scalar MyScenario.node[35].veinsmobility 	startTime 	1
scalar MyScenario.node[35].veinsmobility 	totalTime 	10
scalar MyScenario.node[35].veinsmobility 	stopTime 	12
scalar MyScenario.node[35].veinsmobility 	minSpeed 	2.4211570440559
scalar MyScenario.node[35].veinsmobility 	maxSpeed 	13.830739205843
scalar MyScenario.node[35].veinsmobility 	totalDistance 	93.323167140949
scalar MyScenario.node[35].veinsmobility 	totalCO2Emission 	41.822537831159
scalar MyScenario.node[91].appl 	generatedWSMs 	0
scalar MyScenario.node[91].appl 	receivedWSMs 	0
scalar MyScenario.node[91].appl 	generatedBSMs 	0
scalar MyScenario.node[91].appl 	receivedBSMs 	0
scalar MyScenario.node[91].appl 	generatedWSAs 	0
scalar MyScenario.node[91].appl 	receivedWSAs 	0
scalar MyScenario.node[91].nic.phy80211p 	busyTime 	0.00029527272727273
scalar MyScenario.node[91].nic.mac1609_4 	ReceivedUnicastPackets 	0
scalar MyScenario.node[91].nic.mac1609_4 	ReceivedBroadcasts 	0
scalar MyScenario.node[91].nic.mac1609_4 	SentPackets 	0
scalar MyScenario.node[91].nic.mac1609_4 	SNIRLostPackets 	14
scalar MyScenario.node[91].nic.mac1609_4 	RXTXLostPackets 	0
scalar MyScenario.node[91].nic.mac1609_4 	TotalLostPackets 	14
scalar MyScenario.node[91].nic.mac1609_4 	DroppedPacketsInMac 	0
scalar MyScenario.node[91].nic.mac1609_4 	TooLittleTime 	0
scalar MyScenario.node[91].nic.mac1609_4 	TimesIntoBackoff 	0
scalar MyScenario.node[91].nic.mac1609_4 	SlotsBackoff 	0
scalar MyScenario.node[91].nic.mac1609_4 	NumInternalContention 	0
scalar MyScenario.node[91].nic.mac1609_4 	totalBusyTime 	0.000696
scalar MyScenario.node[91].veinsmobility 	startTime 	1
scalar MyScenario.node[91].veinsmobility 	totalTime 	10
scalar MyScenario.node[91].veinsmobility 	stopTime 	12
scalar MyScenario.node[91].veinsmobility 	minSpeed 	1.5291972197359
scalar MyScenario.node[91].veinsmobility 	maxSpeed 	13.824282379029
scalar MyScenario.node[91].veinsmobility 	totalDistance 	92.148256645024
scalar MyScenario.node[91].veinsmobility 	totalCO2Emission 	40.159630896833
scalar MyScenario.node[30].appl 	generatedWSMs 	0
scalar MyScenario.node[30].appl 	receivedWSMs 	0
scalar MyScenario.node[30].appl 	generatedBSMs 	0
scalar MyScenario.node[30].appl 	receivedBSMs 	0
scalar MyScenario.node[30].appl 	generatedWSAs 	0
scalar MyScenario.node[30].appl 	receivedWSAs 	0
scalar MyScenario.node[30].nic.phy80211p 	busyTime 	7.7333333333333e-05
scalar MyScenario.node[30].nic.mac1609_4 	ReceivedUnicastPackets 	0
scalar MyScenario.node[30].nic.mac1609_4 	ReceivedBroadcasts 	0
scalar MyScenario.node[30].nic.mac1609_4 	SentPackets 	0
scalar MyScenario.node[30].nic.mac1609_4 	SNIRLostPackets 	6
scalar MyScenario.node[30].nic.mac1609_4 	RXTXLostPackets 	0
scalar MyScenario.node[30].nic.mac1609_4 	TotalLostPackets 	6
scalar MyScenario.node[30].nic.mac1609_4 	DroppedPacketsInMac 	0
scalar MyScenario.node[30].nic.mac1609_4 	TooLittleTime 	0
scalar MyScenario.node[30].nic.mac1609_4 	TimesIntoBackoff 	0
scalar MyScenario.node[30].nic.mac1609_4 	SlotsBackoff 	0
scalar MyScenario.node[30].nic.mac1609_4 	NumInternalContention 	0
scalar MyScenario.node[30].nic.mac1609_4 	totalBusyTime 	0.000232
scalar MyScenario.node[30].veinsmobility 	startTime 	1
scalar MyScenario.node[30].veinsmobility 	totalTime 	17
scalar MyScenario.node[30].veinsmobility 	stopTime 	19
scalar MyScenario.node[30].veinsmobility 	minSpeed 	2.266436697077
scalar MyScenario.node[30].veinsmobility 	maxSpeed 	13.739577036258
scalar MyScenario.node[30].veinsmobility 	totalDistance 	184.17135774878
scalar MyScenario.node[30].veinsmobility 	totalCO2Emission 	51.798141262395
scalar MyScenario.node[226].appl 	generatedWSMs 	0
scalar MyScenario.node[226].appl 	receivedWSMs 	0
scalar MyScenario.node[226].appl 	generatedBSMs 	0
scalar MyScenario.node[226].appl 	receivedBSMs 	0
scalar MyScenario.node[226].appl 	generatedWSAs 	0
scalar MyScenario.node[226].appl 	receivedWSAs 	0
scalar MyScenario.node[226].nic.phy80211p 	busyTime 	0
scalar MyScenario.node[226].nic.mac1609_4 	ReceivedUnicastPackets 	0
scalar MyScenario.node[226].nic.mac1609_4 	ReceivedBroadcasts 	0
scalar MyScenario.node[226].nic.mac1609_4 	SentPackets 	0
scalar MyScenario.node[226].nic.mac1609_4 	SNIRLostPackets 	0
scalar MyScenario.node[226].nic.mac1609_4 	RXTXLostPackets 	0
scalar MyScenario.node[226].nic.mac1609_4 	TotalLostPackets 	0
scalar MyScenario.node[226].nic.mac1609_4 	DroppedPacketsInMac 	0
scalar MyScenario.node[226].nic.mac1609_4 	TooLittleTime 	0
scalar MyScenario.node[226].nic.mac1609_4 	TimesIntoBackoff 	0
scalar MyScenario.node[226].nic.mac1609_4 	SlotsBackoff 	0
scalar MyScenario.node[226].nic.mac1609_4 	NumInternalContention 	0
scalar MyScenario.node[226].nic.mac1609_4 	totalBusyTime 	0
scalar MyScenario.node[226].veinsmobility 	startTime 	4
scalar MyScenario.node[226].veinsmobility 	totalTime 	18
scalar MyScenario.node[226].veinsmobility 	stopTime 	23
scalar MyScenario.node[226].veinsmobility 	minSpeed 	2.0113671764266
scalar MyScenario.node[226].veinsmobility 	maxSpeed 	13.562675958825
scalar MyScenario.node[226].veinsmobility 	totalDistance 	182.72559580129
scalar MyScenario.node[226].veinsmobility 	totalCO2Emission 	69.030333970895
scalar MyScenario.node[6].appl 	generatedWSMs 	0
scalar MyScenario.node[6].appl 	receivedWSMs 	0
scalar MyScenario.node[6].appl 	generatedBSMs 	0
scalar MyScenario.node[6].appl 	receivedBSMs 	0
scalar MyScenario.node[6].appl 	generatedWSAs 	0
scalar MyScenario.node[6].appl 	receivedWSAs 	0
scalar MyScenario.node[6].nic.phy80211p 	busyTime 	0
scalar MyScenario.node[6].nic.mac1609_4 	ReceivedUnicastPackets 	0
scalar MyScenario.node[6].nic.mac1609_4 	ReceivedBroadcasts 	0
scalar MyScenario.node[6].nic.mac1609_4 	SentPackets 	0
scalar MyScenario.node[6].nic.mac1609_4 	SNIRLostPackets 	0
scalar MyScenario.node[6].nic.mac1609_4 	RXTXLostPackets 	0
scalar MyScenario.node[6].nic.mac1609_4 	TotalLostPackets 	0
scalar MyScenario.node[6].nic.mac1609_4 	DroppedPacketsInMac 	0
scalar MyScenario.node[6].nic.mac1609_4 	TooLittleTime 	0
scalar MyScenario.node[6].nic.mac1609_4 	TimesIntoBackoff 	0
scalar MyScenario.node[6].nic.mac1609_4 	SlotsBackoff 	0
scalar MyScenario.node[6].nic.mac1609_4 	NumInternalContention 	0
scalar MyScenario.node[6].nic.mac1609_4 	totalBusyTime 	0
scalar MyScenario.node[6].veinsmobility 	startTime 	1
scalar MyScenario.node[6].veinsmobility 	totalTime 	26
scalar MyScenario.node[6].veinsmobility 	stopTime 	28
scalar MyScenario.node[6].veinsmobility 	minSpeed 	2.4474117824575
scalar MyScenario.node[6].veinsmobility 	maxSpeed 	13.854126835521
scalar MyScenario.node[6].veinsmobility 	totalDistance 	279.43672552093
scalar MyScenario.node[6].veinsmobility 	totalCO2Emission 	94.838289202336
scalar MyScenario.node[237].appl 	generatedWSMs 	0
scalar MyScenario.node[237].appl 	receivedWSMs 	0
scalar MyScenario.node[237].appl 	generatedBSMs 	0
scalar MyScenario.node[237].appl 	receivedBSMs 	0
scalar MyScenario.node[237].appl 	generatedWSAs 	0
scalar MyScenario.node[237].appl 	receivedWSAs 	0
scalar MyScenario.node[237].nic.phy80211p 	busyTime 	0
scalar MyScenario.node[237].nic.mac1609_4 	ReceivedUnicastPackets 	0
scalar MyScenario.node[237].nic.mac1609_4 	ReceivedBroadcasts 	0
scalar MyScenario.node[237].nic.mac1609_4 	SentPackets 	0
scalar MyScenario.node[237].nic.mac1609_4 	SNIRLostPackets 	0
scalar MyScenario.node[237].nic.mac1609_4 	RXTXLostPackets 	0
scalar MyScenario.node[237].nic.mac1609_4 	TotalLostPackets 	0
scalar MyScenario.node[237].nic.mac1609_4 	DroppedPacketsInMac 	0
scalar MyScenario.node[237].nic.mac1609_4 	TooLittleTime 	0
scalar MyScenario.node[237].nic.mac1609_4 	TimesIntoBackoff 	0
scalar MyScenario.node[237].nic.mac1609_4 	SlotsBackoff 	0
scalar MyScenario.node[237].nic.mac1609_4 	NumInternalContention 	0
scalar MyScenario.node[237].nic.mac1609_4 	totalBusyTime 	0
scalar MyScenario.node[237].veinsmobility 	startTime 	4
scalar MyScenario.node[237].veinsmobility 	totalTime 	24
scalar MyScenario.node[237].veinsmobility 	stopTime 	29
scalar MyScenario.node[237].veinsmobility 	minSpeed 	1.9688953444599
scalar MyScenario.node[237].veinsmobility 	maxSpeed 	13.76430168692
scalar MyScenario.node[237].veinsmobility 	totalDistance 	281.44010817285
scalar MyScenario.node[237].veinsmobility 	totalCO2Emission 	68.346527718463
scalar MyScenario.node[171].appl 	generatedWSMs 	0
scalar MyScenario.node[171].appl 	receivedWSMs 	0
scalar MyScenario.node[171].appl 	generatedBSMs 	0
scalar MyScenario.node[171].appl 	receivedBSMs 	0
scalar MyScenario.node[171].appl 	generatedWSAs 	0
scalar MyScenario.node[171].appl 	receivedWSAs 	0
scalar MyScenario.node[171].nic.phy80211p 	busyTime 	0.00012654545454545
scalar MyScenario.node[171].nic.mac1609_4 	ReceivedUnicastPackets 	0
scalar MyScenario.node[171].nic.mac1609_4 	ReceivedBroadcasts 	0
scalar MyScenario.node[171].nic.mac1609_4 	SentPackets 	0
scalar MyScenario.node[171].nic.mac1609_4 	SNIRLostPackets 	18
scalar MyScenario.node[171].nic.mac1609_4 	RXTXLostPackets 	0
scalar MyScenario.node[171].nic.mac1609_4 	TotalLostPackets 	18
scalar MyScenario.node[171].nic.mac1609_4 	DroppedPacketsInMac 	0
scalar MyScenario.node[171].nic.mac1609_4 	TooLittleTime 	0
scalar MyScenario.node[171].nic.mac1609_4 	TimesIntoBackoff 	0
scalar MyScenario.node[171].nic.mac1609_4 	SlotsBackoff 	0
scalar MyScenario.node[171].nic.mac1609_4 	NumInternalContention 	0
scalar MyScenario.node[171].nic.mac1609_4 	totalBusyTime 	0.000696
scalar MyScenario.node[171].veinsmobility 	startTime 	1
scalar MyScenario.node[171].veinsmobility 	totalTime 	32
scalar MyScenario.node[171].veinsmobility 	stopTime 	34
scalar MyScenario.node[171].veinsmobility 	minSpeed 	2.3872530113906
scalar MyScenario.node[171].veinsmobility 	maxSpeed 	13.848795020021
scalar MyScenario.node[171].veinsmobility 	totalDistance 	364.45061409386
scalar MyScenario.node[171].veinsmobility 	totalCO2Emission 	106.12794027426
scalar MyScenario.node[132].appl 	generatedWSMs 	1
scalar MyScenario.node[132].appl 	receivedWSMs 	9
scalar MyScenario.node[132].appl 	generatedBSMs 	0
scalar MyScenario.node[132].appl 	receivedBSMs 	0
scalar MyScenario.node[132].appl 	generatedWSAs 	0
scalar MyScenario.node[132].appl 	receivedWSAs 	0
scalar MyScenario.node[132].nic.phy80211p 	busyTime 	0.00017897142857143
scalar MyScenario.node[132].nic.mac1609_4 	ReceivedUnicastPackets 	0
scalar MyScenario.node[132].nic.mac1609_4 	ReceivedBroadcasts 	9
scalar MyScenario.node[132].nic.mac1609_4 	SentPackets 	1
scalar MyScenario.node[132].nic.mac1609_4 	SNIRLostPackets 	18
scalar MyScenario.node[132].nic.mac1609_4 	RXTXLostPackets 	4
scalar MyScenario.node[132].nic.mac1609_4 	TotalLostPackets 	22
scalar MyScenario.node[132].nic.mac1609_4 	DroppedPacketsInMac 	0
scalar MyScenario.node[132].nic.mac1609_4 	TooLittleTime 	0
scalar MyScenario.node[132].nic.mac1609_4 	TimesIntoBackoff 	1
scalar MyScenario.node[132].nic.mac1609_4 	SlotsBackoff 	1
scalar MyScenario.node[132].nic.mac1609_4 	NumInternalContention 	0
scalar MyScenario.node[132].nic.mac1609_4 	totalBusyTime 	0.003945
scalar MyScenario.node[132].veinsmobility 	startTime 	1
scalar MyScenario.node[132].veinsmobility 	totalTime 	34
scalar MyScenario.node[132].veinsmobility 	stopTime 	36
scalar MyScenario.node[132].veinsmobility 	minSpeed 	1.6700943362666
scalar MyScenario.node[132].veinsmobility 	maxSpeed 	13.876447050832
scalar MyScenario.node[132].veinsmobility 	totalDistance 	362.27139796378
scalar MyScenario.node[132].veinsmobility 	totalCO2Emission 	127.23592465634
scalar MyScenario.node[291].appl 	generatedWSMs 	0
scalar MyScenario.node[291].appl 	receivedWSMs 	0
scalar MyScenario.node[291].appl 	generatedBSMs 	0
scalar MyScenario.node[291].appl 	receivedBSMs 	0
scalar MyScenario.node[291].appl 	generatedWSAs 	0
scalar MyScenario.node[291].appl 	receivedWSAs 	0
scalar MyScenario.node[291].nic.phy80211p 	busyTime 	0
scalar MyScenario.node[291].nic.mac1609_4 	ReceivedUnicastPackets 	0
scalar MyScenario.node[291].nic.mac1609_4 	ReceivedBroadcasts 	0
scalar MyScenario.node[291].nic.mac1609_4 	SentPackets 	0
scalar MyScenario.node[291].nic.mac1609_4 	SNIRLostPackets 	0
scalar MyScenario.node[291].nic.mac1609_4 	RXTXLostPackets 	0
scalar MyScenario.node[291].nic.mac1609_4 	TotalLostPackets 	0
scalar MyScenario.node[291].nic.mac1609_4 	DroppedPacketsInMac 	0
scalar MyScenario.node[291].nic.mac1609_4 	TooLittleTime 	0
scalar MyScenario.node[291].nic.mac1609_4 	TimesIntoBackoff 	0
scalar MyScenario.node[291].nic.mac1609_4 	SlotsBackoff 	0
scalar MyScenario.node[291].nic.mac1609_4 	NumInternalContention 	0
scalar MyScenario.node[291].nic.mac1609_4 	totalBusyTime 	0
scalar MyScenario.node[291].veinsmobility 	startTime 	7
scalar MyScenario.node[291].veinsmobility 	totalTime 	31
scalar MyScenario.node[291].veinsmobility 	stopTime 	39
scalar MyScenario.node[291].veinsmobility 	minSpeed 	2.084335730481
scalar MyScenario.node[291].veinsmobility 	maxSpeed 	13.874581500911
scalar MyScenario.node[291].veinsmobility 	totalDistance 	375.74990311125
scalar MyScenario.node[291].veinsmobility 	totalCO2Emission 	90.871129481908
scalar MyScenario.node[238].appl 	generatedWSMs 	0
scalar MyScenario.node[238].appl 	receivedWSMs 	0
scalar MyScenario.node[238].appl 	generatedBSMs 	0
scalar MyScenario.node[238].appl 	receivedBSMs 	0
scalar MyScenario.node[238].appl 	generatedWSAs 	0
scalar MyScenario.node[238].appl 	receivedWSAs 	0
scalar MyScenario.node[238].nic.phy80211p 	busyTime 	0
scalar MyScenario.node[238].nic.mac1609_4 	ReceivedUnicastPackets 	0
scalar MyScenario.node[238].nic.mac1609_4 	ReceivedBroadcasts 	0
scalar MyScenario.node[238].nic.mac1609_4 	SentPackets 	0
scalar MyScenario.node[238].nic.mac1609_4 	SNIRLostPackets 	0
scalar MyScenario.node[238].nic.mac1609_4 	RXTXLostPackets 	0
scalar MyScenario.node[238].nic.mac1609_4 	TotalLostPackets 	0
scalar MyScenario.node[238].nic.mac1609_4 	DroppedPacketsInMac 	0
scalar MyScenario.node[238].nic.mac1609_4 	TooLittleTime 	0
scalar MyScenario.node[238].nic.mac1609_4 	TimesIntoBackoff 	0
scalar MyScenario.node[238].nic.mac1609_4 	SlotsBackoff 	0
scalar MyScenario.node[238].nic.mac1609_4 	NumInternalContention 	0
scalar MyScenario.node[238].nic.mac1609_4 	totalBusyTime 	0
scalar MyScenario.node[238].veinsmobility 	startTime 	4
scalar MyScenario.node[238].veinsmobility 	totalTime 	35
scalar MyScenario.node[238].veinsmobility 	stopTime 	40
scalar MyScenario.node[238].veinsmobility 	minSpeed 	1.8696115848143
scalar MyScenario.node[238].veinsmobility 	maxSpeed 	13.897043799586
scalar MyScenario.node[238].veinsmobility 	totalDistance 	375.61743668371
scalar MyScenario.node[238].veinsmobility 	totalCO2Emission 	127.80709539815
scalar MyScenario.node[59].appl 	generatedWSMs 	0
scalar MyScenario.node[59].appl 	receivedWSMs 	0
scalar MyScenario.node[59].appl 	generatedBSMs 	0
scalar MyScenario.node[59].appl 	receivedBSMs 	0
scalar MyScenario.node[59].appl 	generatedWSAs 	0
scalar MyScenario.node[59].appl 	receivedWSAs 	0
scalar MyScenario.node[59].nic.phy80211p 	busyTime 	0
scalar MyScenario.node[59].nic.mac1609_4 	ReceivedUnicastPackets 	0
scalar MyScenario.node[59].nic.mac1609_4 	ReceivedBroadcasts 	0
scalar MyScenario.node[59].nic.mac1609_4 	SentPackets 	0
scalar MyScenario.node[59].nic.mac1609_4 	SNIRLostPackets 	0
scalar MyScenario.node[59].nic.mac1609_4 	RXTXLostPackets 	0
scalar MyScenario.node[59].nic.mac1609_4 	TotalLostPackets 	0
scalar MyScenario.node[59].nic.mac1609_4 	DroppedPacketsInMac 	0
scalar MyScenario.node[59].nic.mac1609_4 	TooLittleTime 	0
scalar MyScenario.node[59].nic.mac1609_4 	TimesIntoBackoff 	0
scalar MyScenario.node[59].nic.mac1609_4 	SlotsBackoff 	0
scalar MyScenario.node[59].nic.mac1609_4 	NumInternalContention 	0
scalar MyScenario.node[59].nic.mac1609_4 	totalBusyTime 	0
scalar MyScenario.node[59].veinsmobility 	startTime 	1
scalar MyScenario.node[59].veinsmobility 	totalTime 	38
scalar MyScenario.node[59].veinsmobility 	stopTime 	40
scalar MyScenario.node[59].veinsmobility 	minSpeed 	0.52685934330837
scalar MyScenario.node[59].veinsmobility 	maxSpeed 	13.884722570609
scalar MyScenario.node[59].veinsmobility 	totalDistance 	366.58016330884
scalar MyScenario.node[59].veinsmobility 	totalCO2Emission 	134.64763496157
scalar MyScenario.node[24].appl 	generatedWSMs 	1
scalar MyScenario.node[24].appl 	receivedWSMs 	1
scalar MyScenario.node[24].appl 	generatedBSMs 	0
scalar MyScenario.node[24].appl 	receivedBSMs 	0
scalar MyScenario.node[24].appl 	generatedWSAs 	0
scalar MyScenario.node[24].appl 	receivedWSAs 	0
scalar MyScenario.node[24].nic.phy80211p 	busyTime 	5.3538461538462e-05
scalar MyScenario.node[24].nic.mac1609_4 	ReceivedUnicastPackets 	0
scalar MyScenario.node[24].nic.mac1609_4 	ReceivedBroadcasts 	1
scalar MyScenario.node[24].nic.mac1609_4 	SentPackets 	1
scalar MyScenario.node[24].nic.mac1609_4 	SNIRLostPackets 	8
scalar MyScenario.node[24].nic.mac1609_4 	RXTXLostPackets 	20
scalar MyScenario.node[24].nic.mac1609_4 	TotalLostPackets 	28
scalar MyScenario.node[24].nic.mac1609_4 	DroppedPacketsInMac 	0
scalar MyScenario.node[24].nic.mac1609_4 	TooLittleTime 	0
scalar MyScenario.node[24].nic.mac1609_4 	TimesIntoBackoff 	1
scalar MyScenario.node[24].nic.mac1609_4 	SlotsBackoff 	2
scalar MyScenario.node[24].nic.mac1609_4 	NumInternalContention 	0
scalar MyScenario.node[24].nic.mac1609_4 	totalBusyTime 	0.000929020038
scalar MyScenario.node[24].veinsmobility 	startTime 	1
scalar MyScenario.node[24].veinsmobility 	totalTime 	38
scalar MyScenario.node[24].veinsmobility 	stopTime 	40
scalar MyScenario.node[24].veinsmobility 	minSpeed 	1.7616793120513
scalar MyScenario.node[24].veinsmobility 	maxSpeed 	13.841515835398
scalar MyScenario.node[24].veinsmobility 	totalDistance 	371.28845368693
scalar MyScenario.node[24].veinsmobility 	totalCO2Emission 	131.5054220984
scalar MyScenario.node[281].appl 	generatedWSMs 	1
scalar MyScenario.node[281].appl 	receivedWSMs 	1
scalar MyScenario.node[281].appl 	generatedBSMs 	0
scalar MyScenario.node[281].appl 	receivedBSMs 	0
scalar MyScenario.node[281].appl 	generatedWSAs 	0
scalar MyScenario.node[281].appl 	receivedWSAs 	0
scalar MyScenario.node[281].nic.phy80211p 	busyTime 	2.0470588235294e-05
scalar MyScenario.node[281].nic.mac1609_4 	ReceivedUnicastPackets 	0
scalar MyScenario.node[281].nic.mac1609_4 	ReceivedBroadcasts 	1
scalar MyScenario.node[281].nic.mac1609_4 	SentPackets 	1
scalar MyScenario.node[281].nic.mac1609_4 	SNIRLostPackets 	2
scalar MyScenario.node[281].nic.mac1609_4 	RXTXLostPackets 	27
scalar MyScenario.node[281].nic.mac1609_4 	TotalLostPackets 	29
scalar MyScenario.node[281].nic.mac1609_4 	DroppedPacketsInMac 	0
scalar MyScenario.node[281].nic.mac1609_4 	TooLittleTime 	0
scalar MyScenario.node[281].nic.mac1609_4 	TimesIntoBackoff 	1
scalar MyScenario.node[281].nic.mac1609_4 	SlotsBackoff 	1
scalar MyScenario.node[281].nic.mac1609_4 	NumInternalContention 	0
scalar MyScenario.node[281].nic.mac1609_4 	totalBusyTime 	0.000697254998
scalar MyScenario.node[281].veinsmobility 	startTime 	7
scalar MyScenario.node[281].veinsmobility 	totalTime 	33
scalar MyScenario.node[281].veinsmobility 	stopTime 	41
scalar MyScenario.node[281].veinsmobility 	minSpeed 	1.4564184047747
scalar MyScenario.node[281].veinsmobility 	maxSpeed 	13.7917069925
scalar MyScenario.node[281].veinsmobility 	totalDistance 	371.32930678791
scalar MyScenario.node[281].veinsmobility 	totalCO2Emission 	111.29179078585
scalar MyScenario.node[0].appl 	generatedWSMs 	14
scalar MyScenario.node[0].appl 	receivedWSMs 	4
scalar MyScenario.node[0].appl 	generatedBSMs 	0
scalar MyScenario.node[0].appl 	receivedBSMs 	0
scalar MyScenario.node[0].appl 	generatedWSAs 	0
scalar MyScenario.node[0].appl 	receivedWSAs 	0
scalar MyScenario.node[0].nic.phy80211p 	busyTime 	0.000377
scalar MyScenario.node[0].nic.mac1609_4 	ReceivedUnicastPackets 	0
scalar MyScenario.node[0].nic.mac1609_4 	ReceivedBroadcasts 	4
scalar MyScenario.node[0].nic.mac1609_4 	SentPackets 	14
scalar MyScenario.node[0].nic.mac1609_4 	SNIRLostPackets 	61
scalar MyScenario.node[0].nic.mac1609_4 	RXTXLostPackets 	0
scalar MyScenario.node[0].nic.mac1609_4 	TotalLostPackets 	61
scalar MyScenario.node[0].nic.mac1609_4 	DroppedPacketsInMac 	0
scalar MyScenario.node[0].nic.mac1609_4 	TooLittleTime 	0
scalar MyScenario.node[0].nic.mac1609_4 	TimesIntoBackoff 	14
scalar MyScenario.node[0].nic.mac1609_4 	SlotsBackoff 	17
scalar MyScenario.node[0].nic.mac1609_4 	NumInternalContention 	0
scalar MyScenario.node[0].nic.mac1609_4 	totalBusyTime 	0.00581403903
scalar MyScenario.node[0].veinsmobility 	startTime 	1
scalar MyScenario.node[0].veinsmobility 	totalTime 	39
scalar MyScenario.node[0].veinsmobility 	stopTime 	41
scalar MyScenario.node[0].veinsmobility 	minSpeed 	1.8570058425165
scalar MyScenario.node[0].veinsmobility 	maxSpeed 	13.860583499493
scalar MyScenario.node[0].veinsmobility 	totalDistance 	382.06152931808
scalar MyScenario.node[0].veinsmobility 	totalCO2Emission 	112.67295610707
scalar MyScenario.node[173].appl 	generatedWSMs 	0
scalar MyScenario.node[173].appl 	receivedWSMs 	0
scalar MyScenario.node[173].appl 	generatedBSMs 	0
scalar MyScenario.node[173].appl 	receivedBSMs 	0
scalar MyScenario.node[173].appl 	generatedWSAs 	0
scalar MyScenario.node[173].appl 	receivedWSAs 	0
scalar MyScenario.node[173].nic.phy80211p 	busyTime 	0.0001624
scalar MyScenario.node[173].nic.mac1609_4 	ReceivedUnicastPackets 	0
scalar MyScenario.node[173].nic.mac1609_4 	ReceivedBroadcasts 	0
scalar MyScenario.node[173].nic.mac1609_4 	SentPackets 	0
scalar MyScenario.node[173].nic.mac1609_4 	SNIRLostPackets 	28
scalar MyScenario.node[173].nic.mac1609_4 	RXTXLostPackets 	0
scalar MyScenario.node[173].nic.mac1609_4 	TotalLostPackets 	28
scalar MyScenario.node[173].nic.mac1609_4 	DroppedPacketsInMac 	0
scalar MyScenario.node[173].nic.mac1609_4 	TooLittleTime 	0
scalar MyScenario.node[173].nic.mac1609_4 	TimesIntoBackoff 	0
scalar MyScenario.node[173].nic.mac1609_4 	SlotsBackoff 	0
scalar MyScenario.node[173].nic.mac1609_4 	NumInternalContention 	0
scalar MyScenario.node[173].nic.mac1609_4 	totalBusyTime 	0.001856
scalar MyScenario.node[173].veinsmobility 	startTime 	1
scalar MyScenario.node[173].veinsmobility 	totalTime 	39
scalar MyScenario.node[173].veinsmobility 	stopTime 	41
scalar MyScenario.node[173].veinsmobility 	minSpeed 	2.582686538389
scalar MyScenario.node[173].veinsmobility 	maxSpeed 	13.835053198645
scalar MyScenario.node[173].veinsmobility 	totalDistance 	467.63558777414
scalar MyScenario.node[173].veinsmobility 	totalCO2Emission 	127.37931836769
scalar MyScenario.node[129].appl 	generatedWSMs 	0
scalar MyScenario.node[129].appl 	receivedWSMs 	0
scalar MyScenario.node[129].appl 	generatedBSMs 	0
scalar MyScenario.node[129].appl 	receivedBSMs 	0
scalar MyScenario.node[129].appl 	generatedWSAs 	0
scalar MyScenario.node[129].appl 	receivedWSAs 	0
scalar MyScenario.node[129].nic.phy80211p 	busyTime 	0.0001218
scalar MyScenario.node[129].nic.mac1609_4 	ReceivedUnicastPackets 	0
scalar MyScenario.node[129].nic.mac1609_4 	ReceivedBroadcasts 	0
scalar MyScenario.node[129].nic.mac1609_4 	SentPackets 	0
scalar MyScenario.node[129].nic.mac1609_4 	SNIRLostPackets 	21
scalar MyScenario.node[129].nic.mac1609_4 	RXTXLostPackets 	0
scalar MyScenario.node[129].nic.mac1609_4 	TotalLostPackets 	21
scalar MyScenario.node[129].nic.mac1609_4 	DroppedPacketsInMac 	0
scalar MyScenario.node[129].nic.mac1609_4 	TooLittleTime 	0
scalar MyScenario.node[129].nic.mac1609_4 	TimesIntoBackoff 	0
scalar MyScenario.node[129].nic.mac1609_4 	SlotsBackoff 	0
scalar MyScenario.node[129].nic.mac1609_4 	NumInternalContention 	0
scalar MyScenario.node[129].nic.mac1609_4 	totalBusyTime 	0.000232
scalar MyScenario.node[129].veinsmobility 	startTime 	1
scalar MyScenario.node[129].veinsmobility 	totalTime 	39
scalar MyScenario.node[129].veinsmobility 	stopTime 	41
scalar MyScenario.node[129].veinsmobility 	minSpeed 	1.8430399890523
scalar MyScenario.node[129].veinsmobility 	maxSpeed 	13.781510879262
scalar MyScenario.node[129].veinsmobility 	totalDistance 	475.24534971703
scalar MyScenario.node[129].veinsmobility 	totalCO2Emission 	101.69373416869
scalar MyScenario.node[15].appl 	generatedWSMs 	0
scalar MyScenario.node[15].appl 	receivedWSMs 	0
scalar MyScenario.node[15].appl 	generatedBSMs 	0
scalar MyScenario.node[15].appl 	receivedBSMs 	0
scalar MyScenario.node[15].appl 	generatedWSAs 	0
scalar MyScenario.node[15].appl 	receivedWSAs 	0
scalar MyScenario.node[15].nic.phy80211p 	busyTime 	5.6585365853659e-06
scalar MyScenario.node[15].nic.mac1609_4 	ReceivedUnicastPackets 	0
scalar MyScenario.node[15].nic.mac1609_4 	ReceivedBroadcasts 	0
scalar MyScenario.node[15].nic.mac1609_4 	SentPackets 	0
scalar MyScenario.node[15].nic.mac1609_4 	SNIRLostPackets 	1
scalar MyScenario.node[15].nic.mac1609_4 	RXTXLostPackets 	0
scalar MyScenario.node[15].nic.mac1609_4 	TotalLostPackets 	1
scalar MyScenario.node[15].nic.mac1609_4 	DroppedPacketsInMac 	0
scalar MyScenario.node[15].nic.mac1609_4 	TooLittleTime 	0
scalar MyScenario.node[15].nic.mac1609_4 	TimesIntoBackoff 	0
scalar MyScenario.node[15].nic.mac1609_4 	SlotsBackoff 	0
scalar MyScenario.node[15].nic.mac1609_4 	NumInternalContention 	0
scalar MyScenario.node[15].nic.mac1609_4 	totalBusyTime 	0.000232
scalar MyScenario.node[15].veinsmobility 	startTime 	1
scalar MyScenario.node[15].veinsmobility 	totalTime 	40
scalar MyScenario.node[15].veinsmobility 	stopTime 	42
scalar MyScenario.node[15].veinsmobility 	minSpeed 	0.10964268481591
scalar MyScenario.node[15].veinsmobility 	maxSpeed 	13.88552103457
scalar MyScenario.node[15].veinsmobility 	totalDistance 	377.23846181349
scalar MyScenario.node[15].veinsmobility 	totalCO2Emission 	135.01268383972
scalar MyScenario.node[22].appl 	generatedWSMs 	1
scalar MyScenario.node[22].appl 	receivedWSMs 	1
scalar MyScenario.node[22].appl 	generatedBSMs 	0
scalar MyScenario.node[22].appl 	receivedBSMs 	0
scalar MyScenario.node[22].appl 	generatedWSAs 	0
scalar MyScenario.node[22].appl 	receivedWSAs 	0
scalar MyScenario.node[22].nic.phy80211p 	busyTime 	6.2243902439024e-05
scalar MyScenario.node[22].nic.mac1609_4 	ReceivedUnicastPackets 	0
scalar MyScenario.node[22].nic.mac1609_4 	ReceivedBroadcasts 	1
scalar MyScenario.node[22].nic.mac1609_4 	SentPackets 	1
scalar MyScenario.node[22].nic.mac1609_4 	SNIRLostPackets 	10
scalar MyScenario.node[22].nic.mac1609_4 	RXTXLostPackets 	9
scalar MyScenario.node[22].nic.mac1609_4 	TotalLostPackets 	19
scalar MyScenario.node[22].nic.mac1609_4 	DroppedPacketsInMac 	0
scalar MyScenario.node[22].nic.mac1609_4 	TooLittleTime 	0
scalar MyScenario.node[22].nic.mac1609_4 	TimesIntoBackoff 	1
scalar MyScenario.node[22].nic.mac1609_4 	SlotsBackoff 	2
scalar MyScenario.node[22].nic.mac1609_4 	NumInternalContention 	0
scalar MyScenario.node[22].nic.mac1609_4 	totalBusyTime 	0.000697001561
scalar MyScenario.node[22].veinsmobility 	startTime 	1
scalar MyScenario.node[22].veinsmobility 	totalTime 	40
scalar MyScenario.node[22].veinsmobility 	stopTime 	42
scalar MyScenario.node[22].veinsmobility 	minSpeed 	1.5722113803495
scalar MyScenario.node[22].veinsmobility 	maxSpeed 	13.892500733538
scalar MyScenario.node[22].veinsmobility 	totalDistance 	461.46059883496
scalar MyScenario.node[22].veinsmobility 	totalCO2Emission 	133.08441965325
scalar MyScenario.node[72].appl 	generatedWSMs 	1
scalar MyScenario.node[72].appl 	receivedWSMs 	9
scalar MyScenario.node[72].appl 	generatedBSMs 	0
scalar MyScenario.node[72].appl 	receivedBSMs 	0
scalar MyScenario.node[72].appl 	generatedWSAs 	0
scalar MyScenario.node[72].appl 	receivedWSAs 	0
scalar MyScenario.node[72].nic.phy80211p 	busyTime 	0.00018228571428571
scalar MyScenario.node[72].nic.mac1609_4 	ReceivedUnicastPackets 	0
scalar MyScenario.node[72].nic.mac1609_4 	ReceivedBroadcasts 	9
scalar MyScenario.node[72].nic.mac1609_4 	SentPackets 	1
scalar MyScenario.node[72].nic.mac1609_4 	SNIRLostPackets 	24
scalar MyScenario.node[72].nic.mac1609_4 	RXTXLostPackets 	15
scalar MyScenario.node[72].nic.mac1609_4 	TotalLostPackets 	39
scalar MyScenario.node[72].nic.mac1609_4 	DroppedPacketsInMac 	0
scalar MyScenario.node[72].nic.mac1609_4 	TooLittleTime 	0
scalar MyScenario.node[72].nic.mac1609_4 	TimesIntoBackoff 	1
scalar MyScenario.node[72].nic.mac1609_4 	SlotsBackoff 	2
scalar MyScenario.node[72].nic.mac1609_4 	NumInternalContention 	0
scalar MyScenario.node[72].nic.mac1609_4 	totalBusyTime 	0.003713156227
scalar MyScenario.node[72].veinsmobility 	startTime 	1
scalar MyScenario.node[72].veinsmobility 	totalTime 	41
scalar MyScenario.node[72].veinsmobility 	stopTime 	43
scalar MyScenario.node[72].veinsmobility 	minSpeed 	2.272481552721
scalar MyScenario.node[72].veinsmobility 	maxSpeed 	13.687021533959
scalar MyScenario.node[72].veinsmobility 	totalDistance 	460.385399686
scalar MyScenario.node[72].veinsmobility 	totalCO2Emission 	133.59519284445
scalar MyScenario.node[54].appl 	generatedWSMs 	0
scalar MyScenario.node[54].appl 	receivedWSMs 	0
scalar MyScenario.node[54].appl 	generatedBSMs 	0
scalar MyScenario.node[54].appl 	receivedBSMs 	0
scalar MyScenario.node[54].appl 	generatedWSAs 	0
scalar MyScenario.node[54].appl 	receivedWSAs 	0
scalar MyScenario.node[54].nic.phy80211p 	busyTime 	2.2095238095238e-05
scalar MyScenario.node[54].nic.mac1609_4 	ReceivedUnicastPackets 	0
scalar MyScenario.node[54].nic.mac1609_4 	ReceivedBroadcasts 	0
scalar MyScenario.node[54].nic.mac1609_4 	SentPackets 	0
scalar MyScenario.node[54].nic.mac1609_4 	SNIRLostPackets 	4
scalar MyScenario.node[54].nic.mac1609_4 	RXTXLostPackets 	0
scalar MyScenario.node[54].nic.mac1609_4 	TotalLostPackets 	4
scalar MyScenario.node[54].nic.mac1609_4 	DroppedPacketsInMac 	0
scalar MyScenario.node[54].nic.mac1609_4 	TooLittleTime 	0
scalar MyScenario.node[54].nic.mac1609_4 	TimesIntoBackoff 	0
scalar MyScenario.node[54].nic.mac1609_4 	SlotsBackoff 	0
scalar MyScenario.node[54].nic.mac1609_4 	NumInternalContention 	0
scalar MyScenario.node[54].nic.mac1609_4 	totalBusyTime 	0.000232
scalar MyScenario.node[54].veinsmobility 	startTime 	1
scalar MyScenario.node[54].veinsmobility 	totalTime 	41
scalar MyScenario.node[54].veinsmobility 	stopTime 	43
scalar MyScenario.node[54].veinsmobility 	minSpeed 	1.6574601989938
scalar MyScenario.node[54].veinsmobility 	maxSpeed 	13.871156170056
scalar MyScenario.node[54].veinsmobility 	totalDistance 	466.7570155254
scalar MyScenario.node[54].veinsmobility 	totalCO2Emission 	138.26764623164
scalar MyScenario.node[178].appl 	generatedWSMs 	1
scalar MyScenario.node[178].appl 	receivedWSMs 	12
scalar MyScenario.node[178].appl 	generatedBSMs 	0
scalar MyScenario.node[178].appl 	receivedBSMs 	0
scalar MyScenario.node[178].appl 	generatedWSAs 	0
scalar MyScenario.node[178].appl 	receivedWSAs 	0
scalar MyScenario.node[178].nic.phy80211p 	busyTime 	0.00020438095238095
scalar MyScenario.node[178].nic.mac1609_4 	ReceivedUnicastPackets 	0
scalar MyScenario.node[178].nic.mac1609_4 	ReceivedBroadcasts 	12
scalar MyScenario.node[178].nic.mac1609_4 	SentPackets 	1
scalar MyScenario.node[178].nic.mac1609_4 	SNIRLostPackets 	25
scalar MyScenario.node[178].nic.mac1609_4 	RXTXLostPackets 	15
scalar MyScenario.node[178].nic.mac1609_4 	TotalLostPackets 	40
scalar MyScenario.node[178].nic.mac1609_4 	DroppedPacketsInMac 	0
scalar MyScenario.node[178].nic.mac1609_4 	TooLittleTime 	0
scalar MyScenario.node[178].nic.mac1609_4 	TimesIntoBackoff 	1
scalar MyScenario.node[178].nic.mac1609_4 	SlotsBackoff 	2
scalar MyScenario.node[178].nic.mac1609_4 	NumInternalContention 	0
scalar MyScenario.node[178].nic.mac1609_4 	totalBusyTime 	0.004873136233
scalar MyScenario.node[178].veinsmobility 	startTime 	1
scalar MyScenario.node[178].veinsmobility 	totalTime 	41
scalar MyScenario.node[178].veinsmobility 	stopTime 	43
scalar MyScenario.node[178].veinsmobility 	minSpeed 	1.4849196801428
scalar MyScenario.node[178].veinsmobility 	maxSpeed 	13.818931227736
scalar MyScenario.node[178].veinsmobility 	totalDistance 	465.3563835172
scalar MyScenario.node[178].veinsmobility 	totalCO2Emission 	122.65743267569
scalar MyScenario.node[215].appl 	generatedWSMs 	1
scalar MyScenario.node[215].appl 	receivedWSMs 	12
scalar MyScenario.node[215].appl 	generatedBSMs 	0
scalar MyScenario.node[215].appl 	receivedBSMs 	0
scalar MyScenario.node[215].appl 	generatedWSAs 	0
scalar MyScenario.node[215].appl 	receivedWSAs 	0
scalar MyScenario.node[215].nic.phy80211p 	busyTime 	0.0001665641025641
scalar MyScenario.node[215].nic.mac1609_4 	ReceivedUnicastPackets 	0
scalar MyScenario.node[215].nic.mac1609_4 	ReceivedBroadcasts 	12
scalar MyScenario.node[215].nic.mac1609_4 	SentPackets 	1
scalar MyScenario.node[215].nic.mac1609_4 	SNIRLostPackets 	16
scalar MyScenario.node[215].nic.mac1609_4 	RXTXLostPackets 	7
scalar MyScenario.node[215].nic.mac1609_4 	TotalLostPackets 	23
scalar MyScenario.node[215].nic.mac1609_4 	DroppedPacketsInMac 	0
scalar MyScenario.node[215].nic.mac1609_4 	TooLittleTime 	0
scalar MyScenario.node[215].nic.mac1609_4 	TimesIntoBackoff 	1
scalar MyScenario.node[215].nic.mac1609_4 	SlotsBackoff 	1
scalar MyScenario.node[215].nic.mac1609_4 	NumInternalContention 	0
scalar MyScenario.node[215].nic.mac1609_4 	totalBusyTime 	0.004641031364
scalar MyScenario.node[215].veinsmobility 	startTime 	4
scalar MyScenario.node[215].veinsmobility 	totalTime 	38
scalar MyScenario.node[215].veinsmobility 	stopTime 	43
scalar MyScenario.node[215].veinsmobility 	minSpeed 	1.6332490691865
scalar MyScenario.node[215].veinsmobility 	maxSpeed 	13.89756916461
scalar MyScenario.node[215].veinsmobility 	totalDistance 	378.89965231746
scalar MyScenario.node[215].veinsmobility 	totalCO2Emission 	145.09746708305
scalar MyScenario.node[70].appl 	generatedWSMs 	0
scalar MyScenario.node[70].appl 	receivedWSMs 	0
scalar MyScenario.node[70].appl 	generatedBSMs 	0
scalar MyScenario.node[70].appl 	receivedBSMs 	0
scalar MyScenario.node[70].appl 	generatedWSAs 	0
scalar MyScenario.node[70].appl 	receivedWSAs 	0
scalar MyScenario.node[70].nic.phy80211p 	busyTime 	9.3904761904762e-05
scalar MyScenario.node[70].nic.mac1609_4 	ReceivedUnicastPackets 	0
scalar MyScenario.node[70].nic.mac1609_4 	ReceivedBroadcasts 	0
scalar MyScenario.node[70].nic.mac1609_4 	SentPackets 	0
scalar MyScenario.node[70].nic.mac1609_4 	SNIRLostPackets 	17
scalar MyScenario.node[70].nic.mac1609_4 	RXTXLostPackets 	0
scalar MyScenario.node[70].nic.mac1609_4 	TotalLostPackets 	17
scalar MyScenario.node[70].nic.mac1609_4 	DroppedPacketsInMac 	0
scalar MyScenario.node[70].nic.mac1609_4 	TooLittleTime 	0
scalar MyScenario.node[70].nic.mac1609_4 	TimesIntoBackoff 	0
scalar MyScenario.node[70].nic.mac1609_4 	SlotsBackoff 	0
scalar MyScenario.node[70].nic.mac1609_4 	NumInternalContention 	0
scalar MyScenario.node[70].nic.mac1609_4 	totalBusyTime 	0.000928
scalar MyScenario.node[70].veinsmobility 	startTime 	1
scalar MyScenario.node[70].veinsmobility 	totalTime 	41
scalar MyScenario.node[70].veinsmobility 	stopTime 	43
scalar MyScenario.node[70].veinsmobility 	minSpeed 	2.102037433465
scalar MyScenario.node[70].veinsmobility 	maxSpeed 	13.875973583595
scalar MyScenario.node[70].veinsmobility 	totalDistance 	481.93079775801
scalar MyScenario.node[70].veinsmobility 	totalCO2Emission 	121.46681701596
scalar MyScenario.node[126].appl 	generatedWSMs 	1
scalar MyScenario.node[126].appl 	receivedWSMs 	4
scalar MyScenario.node[126].appl 	generatedBSMs 	0
scalar MyScenario.node[126].appl 	receivedBSMs 	0
scalar MyScenario.node[126].appl 	generatedWSAs 	0
scalar MyScenario.node[126].appl 	receivedWSAs 	0
scalar MyScenario.node[126].nic.phy80211p 	busyTime 	0.00022647619047619
scalar MyScenario.node[126].nic.mac1609_4 	ReceivedUnicastPackets 	0
scalar MyScenario.node[126].nic.mac1609_4 	ReceivedBroadcasts 	4
scalar MyScenario.node[126].nic.mac1609_4 	SentPackets 	1
scalar MyScenario.node[126].nic.mac1609_4 	SNIRLostPackets 	37
scalar MyScenario.node[126].nic.mac1609_4 	RXTXLostPackets 	0
scalar MyScenario.node[126].nic.mac1609_4 	TotalLostPackets 	37
scalar MyScenario.node[126].nic.mac1609_4 	DroppedPacketsInMac 	0
scalar MyScenario.node[126].nic.mac1609_4 	TooLittleTime 	0
scalar MyScenario.node[126].nic.mac1609_4 	TimesIntoBackoff 	1
scalar MyScenario.node[126].nic.mac1609_4 	SlotsBackoff 	2
scalar MyScenario.node[126].nic.mac1609_4 	NumInternalContention 	0
scalar MyScenario.node[126].nic.mac1609_4 	totalBusyTime 	0.003017
scalar MyScenario.node[126].veinsmobility 	startTime 	1
scalar MyScenario.node[126].veinsmobility 	totalTime 	41
scalar MyScenario.node[126].veinsmobility 	stopTime 	43
scalar MyScenario.node[126].veinsmobility 	minSpeed 	1.3123831375968
scalar MyScenario.node[126].veinsmobility 	maxSpeed 	13.878752128803
scalar MyScenario.node[126].veinsmobility 	totalDistance 	467.93118849684
scalar MyScenario.node[126].veinsmobility 	totalCO2Emission 	125.17615862694
scalar MyScenario.node[100].appl 	generatedWSMs 	0
scalar MyScenario.node[100].appl 	receivedWSMs 	0
scalar MyScenario.node[100].appl 	generatedBSMs 	0
scalar MyScenario.node[100].appl 	receivedBSMs 	0
scalar MyScenario.node[100].appl 	generatedWSAs 	0
scalar MyScenario.node[100].appl 	receivedWSAs 	0
scalar MyScenario.node[100].nic.phy80211p 	busyTime 	0
scalar MyScenario.node[100].nic.mac1609_4 	ReceivedUnicastPackets 	0
scalar MyScenario.node[100].nic.mac1609_4 	ReceivedBroadcasts 	0
scalar MyScenario.node[100].nic.mac1609_4 	SentPackets 	0
scalar MyScenario.node[100].nic.mac1609_4 	SNIRLostPackets 	0
scalar MyScenario.node[100].nic.mac1609_4 	RXTXLostPackets 	0
scalar MyScenario.node[100].nic.mac1609_4 	TotalLostPackets 	0
scalar MyScenario.node[100].nic.mac1609_4 	DroppedPacketsInMac 	0
scalar MyScenario.node[100].nic.mac1609_4 	TooLittleTime 	0
scalar MyScenario.node[100].nic.mac1609_4 	TimesIntoBackoff 	0
scalar MyScenario.node[100].nic.mac1609_4 	SlotsBackoff 	0
scalar MyScenario.node[100].nic.mac1609_4 	NumInternalContention 	0
scalar MyScenario.node[100].nic.mac1609_4 	totalBusyTime 	0
scalar MyScenario.node[100].veinsmobility 	startTime 	1
scalar MyScenario.node[100].veinsmobility 	totalTime 	42
scalar MyScenario.node[100].veinsmobility 	stopTime 	44
scalar MyScenario.node[100].veinsmobility 	minSpeed 	0.10315015215733
scalar MyScenario.node[100].veinsmobility 	maxSpeed 	13.898545371252
scalar MyScenario.node[100].veinsmobility 	totalDistance 	378.08714081443
scalar MyScenario.node[100].veinsmobility 	totalCO2Emission 	155.1867074429
scalar MyScenario.node[63].appl 	generatedWSMs 	0
scalar MyScenario.node[63].appl 	receivedWSMs 	0
scalar MyScenario.node[63].appl 	generatedBSMs 	0
scalar MyScenario.node[63].appl 	receivedBSMs 	0
scalar MyScenario.node[63].appl 	generatedWSAs 	0
scalar MyScenario.node[63].appl 	receivedWSAs 	0
scalar MyScenario.node[63].nic.phy80211p 	busyTime 	1.0790697674419e-05
scalar MyScenario.node[63].nic.mac1609_4 	ReceivedUnicastPackets 	0
scalar MyScenario.node[63].nic.mac1609_4 	ReceivedBroadcasts 	0
scalar MyScenario.node[63].nic.mac1609_4 	SentPackets 	0
scalar MyScenario.node[63].nic.mac1609_4 	SNIRLostPackets 	2
scalar MyScenario.node[63].nic.mac1609_4 	RXTXLostPackets 	0
scalar MyScenario.node[63].nic.mac1609_4 	TotalLostPackets 	2
scalar MyScenario.node[63].nic.mac1609_4 	DroppedPacketsInMac 	0
scalar MyScenario.node[63].nic.mac1609_4 	TooLittleTime 	0
scalar MyScenario.node[63].nic.mac1609_4 	TimesIntoBackoff 	0
scalar MyScenario.node[63].nic.mac1609_4 	SlotsBackoff 	0
scalar MyScenario.node[63].nic.mac1609_4 	NumInternalContention 	0
scalar MyScenario.node[63].nic.mac1609_4 	totalBusyTime 	0.000464
scalar MyScenario.node[63].veinsmobility 	startTime 	1
scalar MyScenario.node[63].veinsmobility 	totalTime 	42
scalar MyScenario.node[63].veinsmobility 	stopTime 	44
scalar MyScenario.node[63].veinsmobility 	minSpeed 	1.2149143676219
scalar MyScenario.node[63].veinsmobility 	maxSpeed 	13.805782372807
scalar MyScenario.node[63].veinsmobility 	totalDistance 	459.39994765295
scalar MyScenario.node[63].veinsmobility 	totalCO2Emission 	121.97744260935
scalar MyScenario.node[52].appl 	generatedWSMs 	1
scalar MyScenario.node[52].appl 	receivedWSMs 	1
scalar MyScenario.node[52].appl 	generatedBSMs 	0
scalar MyScenario.node[52].appl 	receivedBSMs 	0
scalar MyScenario.node[52].appl 	generatedWSAs 	0
scalar MyScenario.node[52].appl 	receivedWSAs 	0
scalar MyScenario.node[52].nic.phy80211p 	busyTime 	0.000174
scalar MyScenario.node[52].nic.mac1609_4 	ReceivedUnicastPackets 	0
scalar MyScenario.node[52].nic.mac1609_4 	ReceivedBroadcasts 	1
scalar MyScenario.node[52].nic.mac1609_4 	SentPackets 	1
scalar MyScenario.node[52].nic.mac1609_4 	SNIRLostPackets 	32
scalar MyScenario.node[52].nic.mac1609_4 	RXTXLostPackets 	9
scalar MyScenario.node[52].nic.mac1609_4 	TotalLostPackets 	41
scalar MyScenario.node[52].nic.mac1609_4 	DroppedPacketsInMac 	0
scalar MyScenario.node[52].nic.mac1609_4 	TooLittleTime 	0
scalar MyScenario.node[52].nic.mac1609_4 	TimesIntoBackoff 	1
scalar MyScenario.node[52].nic.mac1609_4 	SlotsBackoff 	3
scalar MyScenario.node[52].nic.mac1609_4 	NumInternalContention 	0
scalar MyScenario.node[52].nic.mac1609_4 	totalBusyTime 	0.002321
scalar MyScenario.node[52].veinsmobility 	startTime 	1
scalar MyScenario.node[52].veinsmobility 	totalTime 	43
scalar MyScenario.node[52].veinsmobility 	stopTime 	45
scalar MyScenario.node[52].veinsmobility 	minSpeed 	1.6035684460308
scalar MyScenario.node[52].veinsmobility 	maxSpeed 	13.882334261737
scalar MyScenario.node[52].veinsmobility 	totalDistance 	471.90411841658
scalar MyScenario.node[52].veinsmobility 	totalCO2Emission 	123.79741194874
scalar MyScenario.node[145].appl 	generatedWSMs 	0
scalar MyScenario.node[145].appl 	receivedWSMs 	0
scalar MyScenario.node[145].appl 	generatedBSMs 	0
scalar MyScenario.node[145].appl 	receivedBSMs 	0
scalar MyScenario.node[145].appl 	generatedWSAs 	0
scalar MyScenario.node[145].appl 	receivedWSAs 	0
scalar MyScenario.node[145].nic.phy80211p 	busyTime 	1.5818181818182e-05
scalar MyScenario.node[145].nic.mac1609_4 	ReceivedUnicastPackets 	0
scalar MyScenario.node[145].nic.mac1609_4 	ReceivedBroadcasts 	0
scalar MyScenario.node[145].nic.mac1609_4 	SentPackets 	0
scalar MyScenario.node[145].nic.mac1609_4 	SNIRLostPackets 	3
scalar MyScenario.node[145].nic.mac1609_4 	RXTXLostPackets 	0
scalar MyScenario.node[145].nic.mac1609_4 	TotalLostPackets 	3
scalar MyScenario.node[145].nic.mac1609_4 	DroppedPacketsInMac 	0
scalar MyScenario.node[145].nic.mac1609_4 	TooLittleTime 	0
scalar MyScenario.node[145].nic.mac1609_4 	TimesIntoBackoff 	0
scalar MyScenario.node[145].nic.mac1609_4 	SlotsBackoff 	0
scalar MyScenario.node[145].nic.mac1609_4 	NumInternalContention 	0
scalar MyScenario.node[145].nic.mac1609_4 	totalBusyTime 	0.000232
scalar MyScenario.node[145].veinsmobility 	startTime 	1
scalar MyScenario.node[145].veinsmobility 	totalTime 	43
scalar MyScenario.node[145].veinsmobility 	stopTime 	45
scalar MyScenario.node[145].veinsmobility 	minSpeed 	1.9230655725347
scalar MyScenario.node[145].veinsmobility 	maxSpeed 	13.858772210078
scalar MyScenario.node[145].veinsmobility 	totalDistance 	466.50417982074
scalar MyScenario.node[145].veinsmobility 	totalCO2Emission 	154.12899499851
scalar MyScenario.node[26].appl 	generatedWSMs 	0
scalar MyScenario.node[26].appl 	receivedWSMs 	0
scalar MyScenario.node[26].appl 	generatedBSMs 	0
scalar MyScenario.node[26].appl 	receivedBSMs 	0
scalar MyScenario.node[26].appl 	generatedWSAs 	0
scalar MyScenario.node[26].appl 	receivedWSAs 	0
scalar MyScenario.node[26].nic.phy80211p 	busyTime 	7.5652173913043e-05
scalar MyScenario.node[26].nic.mac1609_4 	ReceivedUnicastPackets 	0
scalar MyScenario.node[26].nic.mac1609_4 	ReceivedBroadcasts 	0
scalar MyScenario.node[26].nic.mac1609_4 	SentPackets 	0
scalar MyScenario.node[26].nic.mac1609_4 	SNIRLostPackets 	15
scalar MyScenario.node[26].nic.mac1609_4 	RXTXLostPackets 	0
scalar MyScenario.node[26].nic.mac1609_4 	TotalLostPackets 	15
scalar MyScenario.node[26].nic.mac1609_4 	DroppedPacketsInMac 	0
scalar MyScenario.node[26].nic.mac1609_4 	TooLittleTime 	0
scalar MyScenario.node[26].nic.mac1609_4 	TimesIntoBackoff 	0
scalar MyScenario.node[26].nic.mac1609_4 	SlotsBackoff 	0
scalar MyScenario.node[26].nic.mac1609_4 	NumInternalContention 	0
scalar MyScenario.node[26].nic.mac1609_4 	totalBusyTime 	0.000464
scalar MyScenario.node[26].veinsmobility 	startTime 	1
scalar MyScenario.node[26].veinsmobility 	totalTime 	45
scalar MyScenario.node[26].veinsmobility 	stopTime 	47
scalar MyScenario.node[26].veinsmobility 	minSpeed 	0.049596043109328
scalar MyScenario.node[26].veinsmobility 	maxSpeed 	13.771785135334
scalar MyScenario.node[26].veinsmobility 	totalDistance 	472.3682031735
scalar MyScenario.node[26].veinsmobility 	totalCO2Emission 	132.30888247508
scalar MyScenario.node[189].appl 	generatedWSMs 	1
scalar MyScenario.node[189].appl 	receivedWSMs 	6
scalar MyScenario.node[189].appl 	generatedBSMs 	0
scalar MyScenario.node[189].appl 	receivedBSMs 	0
scalar MyScenario.node[189].appl 	generatedWSAs 	0
scalar MyScenario.node[189].appl 	receivedWSAs 	0
scalar MyScenario.node[189].nic.phy80211p 	busyTime 	0.00010591304347826
scalar MyScenario.node[189].nic.mac1609_4 	ReceivedUnicastPackets 	0
scalar MyScenario.node[189].nic.mac1609_4 	ReceivedBroadcasts 	6
scalar MyScenario.node[189].nic.mac1609_4 	SentPackets 	1
scalar MyScenario.node[189].nic.mac1609_4 	SNIRLostPackets 	15
scalar MyScenario.node[189].nic.mac1609_4 	RXTXLostPackets 	10
scalar MyScenario.node[189].nic.mac1609_4 	TotalLostPackets 	25
scalar MyScenario.node[189].nic.mac1609_4 	DroppedPacketsInMac 	0
scalar MyScenario.node[189].nic.mac1609_4 	TooLittleTime 	0
scalar MyScenario.node[189].nic.mac1609_4 	TimesIntoBackoff 	1
scalar MyScenario.node[189].nic.mac1609_4 	SlotsBackoff 	2
scalar MyScenario.node[189].nic.mac1609_4 	NumInternalContention 	0
scalar MyScenario.node[189].nic.mac1609_4 	totalBusyTime 	0.002785128233
scalar MyScenario.node[189].veinsmobility 	startTime 	1
scalar MyScenario.node[189].veinsmobility 	totalTime 	45
scalar MyScenario.node[189].veinsmobility 	stopTime 	47
scalar MyScenario.node[189].veinsmobility 	minSpeed 	0.79840263589486
scalar MyScenario.node[189].veinsmobility 	maxSpeed 	13.875349896657
scalar MyScenario.node[189].veinsmobility 	totalDistance 	470.14995696652
scalar MyScenario.node[189].veinsmobility 	totalCO2Emission 	150.46149318484
scalar MyScenario.node[303].appl 	generatedWSMs 	1
scalar MyScenario.node[303].appl 	receivedWSMs 	1
scalar MyScenario.node[303].appl 	generatedBSMs 	0
scalar MyScenario.node[303].appl 	receivedBSMs 	0
scalar MyScenario.node[303].appl 	generatedWSAs 	0
scalar MyScenario.node[303].appl 	receivedWSAs 	0
scalar MyScenario.node[303].nic.phy80211p 	busyTime 	0.00033142857142857
scalar MyScenario.node[303].nic.mac1609_4 	ReceivedUnicastPackets 	0
scalar MyScenario.node[303].nic.mac1609_4 	ReceivedBroadcasts 	1
scalar MyScenario.node[303].nic.mac1609_4 	SentPackets 	1
scalar MyScenario.node[303].nic.mac1609_4 	SNIRLostPackets 	9
scalar MyScenario.node[303].nic.mac1609_4 	RXTXLostPackets 	1
scalar MyScenario.node[303].nic.mac1609_4 	TotalLostPackets 	10
scalar MyScenario.node[303].nic.mac1609_4 	DroppedPacketsInMac 	0
scalar MyScenario.node[303].nic.mac1609_4 	TooLittleTime 	0
scalar MyScenario.node[303].nic.mac1609_4 	TimesIntoBackoff 	1
scalar MyScenario.node[303].nic.mac1609_4 	SlotsBackoff 	3
scalar MyScenario.node[303].nic.mac1609_4 	NumInternalContention 	0
scalar MyScenario.node[303].nic.mac1609_4 	totalBusyTime 	0.000697040089
scalar MyScenario.node[303].veinsmobility 	startTime 	40
scalar MyScenario.node[303].veinsmobility 	totalTime 	6
scalar MyScenario.node[303].veinsmobility 	stopTime 	47
scalar MyScenario.node[303].veinsmobility 	minSpeed 	12.682739163912
scalar MyScenario.node[303].veinsmobility 	maxSpeed 	13.706761969673
scalar MyScenario.node[303].veinsmobility 	totalDistance 	78.931517022639
scalar MyScenario.node[303].veinsmobility 	totalCO2Emission 	11.861046877724
scalar MyScenario.node[249].appl 	generatedWSMs 	1
scalar MyScenario.node[249].appl 	receivedWSMs 	1
scalar MyScenario.node[249].appl 	generatedBSMs 	0
scalar MyScenario.node[249].appl 	receivedBSMs 	0
scalar MyScenario.node[249].appl 	generatedWSAs 	0
scalar MyScenario.node[249].appl 	receivedWSAs 	0
scalar MyScenario.node[249].nic.phy80211p 	busyTime 	0.00011072727272727
scalar MyScenario.node[249].nic.mac1609_4 	ReceivedUnicastPackets 	0
scalar MyScenario.node[249].nic.mac1609_4 	ReceivedBroadcasts 	1
scalar MyScenario.node[249].nic.mac1609_4 	SentPackets 	1
scalar MyScenario.node[249].nic.mac1609_4 	SNIRLostPackets 	20
scalar MyScenario.node[249].nic.mac1609_4 	RXTXLostPackets 	1
scalar MyScenario.node[249].nic.mac1609_4 	TotalLostPackets 	21
scalar MyScenario.node[249].nic.mac1609_4 	DroppedPacketsInMac 	0
scalar MyScenario.node[249].nic.mac1609_4 	TooLittleTime 	0
scalar MyScenario.node[249].nic.mac1609_4 	TimesIntoBackoff 	1
scalar MyScenario.node[249].nic.mac1609_4 	SlotsBackoff 	1
scalar MyScenario.node[249].nic.mac1609_4 	NumInternalContention 	0
scalar MyScenario.node[249].nic.mac1609_4 	totalBusyTime 	0.001161041561
scalar MyScenario.node[249].veinsmobility 	startTime 	4
scalar MyScenario.node[249].veinsmobility 	totalTime 	43
scalar MyScenario.node[249].veinsmobility 	stopTime 	48
scalar MyScenario.node[249].veinsmobility 	minSpeed 	1.3107313338201
scalar MyScenario.node[249].veinsmobility 	maxSpeed 	13.803504553274
scalar MyScenario.node[249].veinsmobility 	totalDistance 	468.48077749176
scalar MyScenario.node[249].veinsmobility 	totalCO2Emission 	140.87445978586
scalar MyScenario.node[124].appl 	generatedWSMs 	1
scalar MyScenario.node[124].appl 	receivedWSMs 	8
scalar MyScenario.node[124].appl 	generatedBSMs 	0
scalar MyScenario.node[124].appl 	receivedBSMs 	0
scalar MyScenario.node[124].appl 	generatedWSAs 	0
scalar MyScenario.node[124].appl 	receivedWSAs 	0
scalar MyScenario.node[124].nic.phy80211p 	busyTime 	0.00011353191489362
scalar MyScenario.node[124].nic.mac1609_4 	ReceivedUnicastPackets 	0
scalar MyScenario.node[124].nic.mac1609_4 	ReceivedBroadcasts 	8
scalar MyScenario.node[124].nic.mac1609_4 	SentPackets 	1
scalar MyScenario.node[124].nic.mac1609_4 	SNIRLostPackets 	15
scalar MyScenario.node[124].nic.mac1609_4 	RXTXLostPackets 	1
scalar MyScenario.node[124].nic.mac1609_4 	TotalLostPackets 	16
scalar MyScenario.node[124].nic.mac1609_4 	DroppedPacketsInMac 	0
scalar MyScenario.node[124].nic.mac1609_4 	TooLittleTime 	0
scalar MyScenario.node[124].nic.mac1609_4 	TimesIntoBackoff 	1
scalar MyScenario.node[124].nic.mac1609_4 	SlotsBackoff 	0
scalar MyScenario.node[124].nic.mac1609_4 	NumInternalContention 	0
scalar MyScenario.node[124].nic.mac1609_4 	totalBusyTime 	0.003481
scalar MyScenario.node[124].veinsmobility 	startTime 	1
scalar MyScenario.node[124].veinsmobility 	totalTime 	46
scalar MyScenario.node[124].veinsmobility 	stopTime 	48
scalar MyScenario.node[124].veinsmobility 	minSpeed 	2.1905622050166
scalar MyScenario.node[124].veinsmobility 	maxSpeed 	13.896679890342
scalar MyScenario.node[124].veinsmobility 	totalDistance 	479.35532527341
scalar MyScenario.node[124].veinsmobility 	totalCO2Emission 	166.07967845134
scalar MyScenario.node[8].appl 	generatedWSMs 	0
scalar MyScenario.node[8].appl 	receivedWSMs 	0
scalar MyScenario.node[8].appl 	generatedBSMs 	0
scalar MyScenario.node[8].appl 	receivedBSMs 	0
scalar MyScenario.node[8].appl 	generatedWSAs 	0
scalar MyScenario.node[8].appl 	receivedWSAs 	0
scalar MyScenario.node[8].nic.phy80211p 	busyTime 	3.9489361702128e-05
scalar MyScenario.node[8].nic.mac1609_4 	ReceivedUnicastPackets 	0
scalar MyScenario.node[8].nic.mac1609_4 	ReceivedBroadcasts 	0
scalar MyScenario.node[8].nic.mac1609_4 	SentPackets 	0
scalar MyScenario.node[8].nic.mac1609_4 	SNIRLostPackets 	8
scalar MyScenario.node[8].nic.mac1609_4 	RXTXLostPackets 	0
scalar MyScenario.node[8].nic.mac1609_4 	TotalLostPackets 	8
scalar MyScenario.node[8].nic.mac1609_4 	DroppedPacketsInMac 	0
scalar MyScenario.node[8].nic.mac1609_4 	TooLittleTime 	0
scalar MyScenario.node[8].nic.mac1609_4 	TimesIntoBackoff 	0
scalar MyScenario.node[8].nic.mac1609_4 	SlotsBackoff 	0
scalar MyScenario.node[8].nic.mac1609_4 	NumInternalContention 	0
scalar MyScenario.node[8].nic.mac1609_4 	totalBusyTime 	0.000232
scalar MyScenario.node[8].veinsmobility 	startTime 	1
scalar MyScenario.node[8].veinsmobility 	totalTime 	46
scalar MyScenario.node[8].veinsmobility 	stopTime 	48
scalar MyScenario.node[8].veinsmobility 	minSpeed 	2.8563910535235e-08
scalar MyScenario.node[8].veinsmobility 	maxSpeed 	13.880138368858
scalar MyScenario.node[8].veinsmobility 	totalDistance 	379.49805619092
scalar MyScenario.node[8].veinsmobility 	totalCO2Emission 	129.75902588486
scalar MyScenario.node[247].appl 	generatedWSMs 	1
scalar MyScenario.node[247].appl 	receivedWSMs 	7
scalar MyScenario.node[247].appl 	generatedBSMs 	0
scalar MyScenario.node[247].appl 	receivedBSMs 	0
scalar MyScenario.node[247].appl 	generatedWSAs 	0
scalar MyScenario.node[247].appl 	receivedWSAs 	0
scalar MyScenario.node[247].nic.phy80211p 	busyTime 	0.00013709090909091
scalar MyScenario.node[247].nic.mac1609_4 	ReceivedUnicastPackets 	0
scalar MyScenario.node[247].nic.mac1609_4 	ReceivedBroadcasts 	7
scalar MyScenario.node[247].nic.mac1609_4 	SentPackets 	1
scalar MyScenario.node[247].nic.mac1609_4 	SNIRLostPackets 	19
scalar MyScenario.node[247].nic.mac1609_4 	RXTXLostPackets 	9
scalar MyScenario.node[247].nic.mac1609_4 	TotalLostPackets 	28
scalar MyScenario.node[247].nic.mac1609_4 	DroppedPacketsInMac 	0
scalar MyScenario.node[247].nic.mac1609_4 	TooLittleTime 	0
scalar MyScenario.node[247].nic.mac1609_4 	TimesIntoBackoff 	1
scalar MyScenario.node[247].nic.mac1609_4 	SlotsBackoff 	2
scalar MyScenario.node[247].nic.mac1609_4 	NumInternalContention 	0
scalar MyScenario.node[247].nic.mac1609_4 	totalBusyTime 	0.003017098036
scalar MyScenario.node[247].veinsmobility 	startTime 	4
scalar MyScenario.node[247].veinsmobility 	totalTime 	43
scalar MyScenario.node[247].veinsmobility 	stopTime 	48
scalar MyScenario.node[247].veinsmobility 	minSpeed 	2.219846213772
scalar MyScenario.node[247].veinsmobility 	maxSpeed 	13.877975374856
scalar MyScenario.node[247].veinsmobility 	totalDistance 	485.39802527423
scalar MyScenario.node[247].veinsmobility 	totalCO2Emission 	148.08493900291
scalar MyScenario.node[188].appl 	generatedWSMs 	0
scalar MyScenario.node[188].appl 	receivedWSMs 	0
scalar MyScenario.node[188].appl 	generatedBSMs 	0
scalar MyScenario.node[188].appl 	receivedBSMs 	0
scalar MyScenario.node[188].appl 	generatedWSAs 	0
scalar MyScenario.node[188].appl 	receivedWSAs 	0
scalar MyScenario.node[188].nic.phy80211p 	busyTime 	4.8333333333333e-06
scalar MyScenario.node[188].nic.mac1609_4 	ReceivedUnicastPackets 	0
scalar MyScenario.node[188].nic.mac1609_4 	ReceivedBroadcasts 	0
scalar MyScenario.node[188].nic.mac1609_4 	SentPackets 	0
scalar MyScenario.node[188].nic.mac1609_4 	SNIRLostPackets 	1
scalar MyScenario.node[188].nic.mac1609_4 	RXTXLostPackets 	0
scalar MyScenario.node[188].nic.mac1609_4 	TotalLostPackets 	1
scalar MyScenario.node[188].nic.mac1609_4 	DroppedPacketsInMac 	0
scalar MyScenario.node[188].nic.mac1609_4 	TooLittleTime 	0
scalar MyScenario.node[188].nic.mac1609_4 	TimesIntoBackoff 	0
scalar MyScenario.node[188].nic.mac1609_4 	SlotsBackoff 	0
scalar MyScenario.node[188].nic.mac1609_4 	NumInternalContention 	0
scalar MyScenario.node[188].nic.mac1609_4 	totalBusyTime 	0.000232
scalar MyScenario.node[188].veinsmobility 	startTime 	1
scalar MyScenario.node[188].veinsmobility 	totalTime 	47
scalar MyScenario.node[188].veinsmobility 	stopTime 	49
scalar MyScenario.node[188].veinsmobility 	minSpeed 	2.3583153906511
scalar MyScenario.node[188].veinsmobility 	maxSpeed 	13.865622408688
scalar MyScenario.node[188].veinsmobility 	totalDistance 	568.53112798353
scalar MyScenario.node[188].veinsmobility 	totalCO2Emission 	138.81641799239
scalar MyScenario.node[150].appl 	generatedWSMs 	1
scalar MyScenario.node[150].appl 	receivedWSMs 	4
scalar MyScenario.node[150].appl 	generatedBSMs 	0
scalar MyScenario.node[150].appl 	receivedBSMs 	0
scalar MyScenario.node[150].appl 	generatedWSAs 	0
scalar MyScenario.node[150].appl 	receivedWSAs 	0
scalar MyScenario.node[150].nic.phy80211p 	busyTime 	0.00013257142857143
scalar MyScenario.node[150].nic.mac1609_4 	ReceivedUnicastPackets 	0
scalar MyScenario.node[150].nic.mac1609_4 	ReceivedBroadcasts 	4
scalar MyScenario.node[150].nic.mac1609_4 	SentPackets 	1
scalar MyScenario.node[150].nic.mac1609_4 	SNIRLostPackets 	24
scalar MyScenario.node[150].nic.mac1609_4 	RXTXLostPackets 	0
scalar MyScenario.node[150].nic.mac1609_4 	TotalLostPackets 	24
scalar MyScenario.node[150].nic.mac1609_4 	DroppedPacketsInMac 	0
scalar MyScenario.node[150].nic.mac1609_4 	TooLittleTime 	0
scalar MyScenario.node[150].nic.mac1609_4 	TimesIntoBackoff 	1
scalar MyScenario.node[150].nic.mac1609_4 	SlotsBackoff 	3
scalar MyScenario.node[150].nic.mac1609_4 	NumInternalContention 	0
scalar MyScenario.node[150].nic.mac1609_4 	totalBusyTime 	0.002785
scalar MyScenario.node[150].veinsmobility 	startTime 	1
scalar MyScenario.node[150].veinsmobility 	totalTime 	48
scalar MyScenario.node[150].veinsmobility 	stopTime 	50
scalar MyScenario.node[150].veinsmobility 	minSpeed 	1.6145458706655
scalar MyScenario.node[150].veinsmobility 	maxSpeed 	13.888825532608
scalar MyScenario.node[150].veinsmobility 	totalDistance 	553.37884550506
scalar MyScenario.node[150].veinsmobility 	totalCO2Emission 	166.38488247207
scalar MyScenario.node[206].appl 	generatedWSMs 	1
scalar MyScenario.node[206].appl 	receivedWSMs 	7
scalar MyScenario.node[206].appl 	generatedBSMs 	0
scalar MyScenario.node[206].appl 	receivedBSMs 	0
scalar MyScenario.node[206].appl 	generatedWSAs 	0
scalar MyScenario.node[206].appl 	receivedWSAs 	0
scalar MyScenario.node[206].nic.phy80211p 	busyTime 	0.00010591304347826
scalar MyScenario.node[206].nic.mac1609_4 	ReceivedUnicastPackets 	0
scalar MyScenario.node[206].nic.mac1609_4 	ReceivedBroadcasts 	7
scalar MyScenario.node[206].nic.mac1609_4 	SentPackets 	1
scalar MyScenario.node[206].nic.mac1609_4 	SNIRLostPackets 	14
scalar MyScenario.node[206].nic.mac1609_4 	RXTXLostPackets 	14
scalar MyScenario.node[206].nic.mac1609_4 	TotalLostPackets 	28
scalar MyScenario.node[206].nic.mac1609_4 	DroppedPacketsInMac 	0
scalar MyScenario.node[206].nic.mac1609_4 	TooLittleTime 	0
scalar MyScenario.node[206].nic.mac1609_4 	TimesIntoBackoff 	1
scalar MyScenario.node[206].nic.mac1609_4 	SlotsBackoff 	1
scalar MyScenario.node[206].nic.mac1609_4 	NumInternalContention 	0
scalar MyScenario.node[206].nic.mac1609_4 	totalBusyTime 	0.002785004012
scalar MyScenario.node[206].veinsmobility 	startTime 	4
scalar MyScenario.node[206].veinsmobility 	totalTime 	45
scalar MyScenario.node[206].veinsmobility 	stopTime 	50
scalar MyScenario.node[206].veinsmobility 	minSpeed 	0.41863871707446
scalar MyScenario.node[206].veinsmobility 	maxSpeed 	13.839126314595
scalar MyScenario.node[206].veinsmobility 	totalDistance 	472.02166890965
scalar MyScenario.node[206].veinsmobility 	totalCO2Emission 	133.55495548564
scalar MyScenario.node[260].appl 	generatedWSMs 	1
scalar MyScenario.node[260].appl 	receivedWSMs 	1
scalar MyScenario.node[260].appl 	generatedBSMs 	0
scalar MyScenario.node[260].appl 	receivedBSMs 	0
scalar MyScenario.node[260].appl 	generatedWSAs 	0
scalar MyScenario.node[260].appl 	receivedWSAs 	0
scalar MyScenario.node[260].nic.phy80211p 	busyTime 	5.0434782608696e-05
scalar MyScenario.node[260].nic.mac1609_4 	ReceivedUnicastPackets 	0
scalar MyScenario.node[260].nic.mac1609_4 	ReceivedBroadcasts 	1
scalar MyScenario.node[260].nic.mac1609_4 	SentPackets 	1
scalar MyScenario.node[260].nic.mac1609_4 	SNIRLostPackets 	9
scalar MyScenario.node[260].nic.mac1609_4 	RXTXLostPackets 	17
scalar MyScenario.node[260].nic.mac1609_4 	TotalLostPackets 	26
scalar MyScenario.node[260].nic.mac1609_4 	DroppedPacketsInMac 	0
scalar MyScenario.node[260].nic.mac1609_4 	TooLittleTime 	0
scalar MyScenario.node[260].nic.mac1609_4 	TimesIntoBackoff 	1
scalar MyScenario.node[260].nic.mac1609_4 	SlotsBackoff 	0
scalar MyScenario.node[260].nic.mac1609_4 	NumInternalContention 	0
scalar MyScenario.node[260].nic.mac1609_4 	totalBusyTime 	0.000697144502
scalar MyScenario.node[260].veinsmobility 	startTime 	4
scalar MyScenario.node[260].veinsmobility 	totalTime 	45
scalar MyScenario.node[260].veinsmobility 	stopTime 	50
scalar MyScenario.node[260].veinsmobility 	minSpeed 	0.011385829851865
scalar MyScenario.node[260].veinsmobility 	maxSpeed 	13.845886065206
scalar MyScenario.node[260].veinsmobility 	totalDistance 	464.57839414338
scalar MyScenario.node[260].veinsmobility 	totalCO2Emission 	144.36663669108
scalar MyScenario.node[18].appl 	generatedWSMs 	1
scalar MyScenario.node[18].appl 	receivedWSMs 	5
scalar MyScenario.node[18].appl 	generatedBSMs 	0
scalar MyScenario.node[18].appl 	receivedBSMs 	0
scalar MyScenario.node[18].appl 	generatedWSAs 	0
scalar MyScenario.node[18].appl 	receivedWSAs 	0
scalar MyScenario.node[18].nic.phy80211p 	busyTime 	0.00014204081632653
scalar MyScenario.node[18].nic.mac1609_4 	ReceivedUnicastPackets 	0
scalar MyScenario.node[18].nic.mac1609_4 	ReceivedBroadcasts 	5
scalar MyScenario.node[18].nic.mac1609_4 	SentPackets 	1
scalar MyScenario.node[18].nic.mac1609_4 	SNIRLostPackets 	25
scalar MyScenario.node[18].nic.mac1609_4 	RXTXLostPackets 	1
scalar MyScenario.node[18].nic.mac1609_4 	TotalLostPackets 	26
scalar MyScenario.node[18].nic.mac1609_4 	DroppedPacketsInMac 	0
scalar MyScenario.node[18].nic.mac1609_4 	TooLittleTime 	0
scalar MyScenario.node[18].nic.mac1609_4 	TimesIntoBackoff 	1
scalar MyScenario.node[18].nic.mac1609_4 	SlotsBackoff 	2
scalar MyScenario.node[18].nic.mac1609_4 	NumInternalContention 	0
scalar MyScenario.node[18].nic.mac1609_4 	totalBusyTime 	0.003017075474
scalar MyScenario.node[18].veinsmobility 	startTime 	1
scalar MyScenario.node[18].veinsmobility 	totalTime 	48
scalar MyScenario.node[18].veinsmobility 	stopTime 	50
scalar MyScenario.node[18].veinsmobility 	minSpeed 	2.3729860931635
scalar MyScenario.node[18].veinsmobility 	maxSpeed 	13.892454715911
scalar MyScenario.node[18].veinsmobility 	totalDistance 	559.56613293192
scalar MyScenario.node[18].veinsmobility 	totalCO2Emission 	145.15210032901
scalar MyScenario.node[167].appl 	generatedWSMs 	1
scalar MyScenario.node[167].appl 	receivedWSMs 	1
scalar MyScenario.node[167].appl 	generatedBSMs 	0
scalar MyScenario.node[167].appl 	receivedBSMs 	0
scalar MyScenario.node[167].appl 	generatedWSAs 	0
scalar MyScenario.node[167].appl 	receivedWSAs 	0
scalar MyScenario.node[167].nic.phy80211p 	busyTime 	5.2081632653061e-05
scalar MyScenario.node[167].nic.mac1609_4 	ReceivedUnicastPackets 	0
scalar MyScenario.node[167].nic.mac1609_4 	ReceivedBroadcasts 	1
scalar MyScenario.node[167].nic.mac1609_4 	SentPackets 	1
scalar MyScenario.node[167].nic.mac1609_4 	SNIRLostPackets 	10
scalar MyScenario.node[167].nic.mac1609_4 	RXTXLostPackets 	9
scalar MyScenario.node[167].nic.mac1609_4 	TotalLostPackets 	19
scalar MyScenario.node[167].nic.mac1609_4 	DroppedPacketsInMac 	0
scalar MyScenario.node[167].nic.mac1609_4 	TooLittleTime 	0
scalar MyScenario.node[167].nic.mac1609_4 	TimesIntoBackoff 	1
scalar MyScenario.node[167].nic.mac1609_4 	SlotsBackoff 	2
scalar MyScenario.node[167].nic.mac1609_4 	NumInternalContention 	0
scalar MyScenario.node[167].nic.mac1609_4 	totalBusyTime 	0.00069712024
scalar MyScenario.node[167].veinsmobility 	startTime 	1
scalar MyScenario.node[167].veinsmobility 	totalTime 	48
scalar MyScenario.node[167].veinsmobility 	stopTime 	50
scalar MyScenario.node[167].veinsmobility 	minSpeed 	1.7411107894033
scalar MyScenario.node[167].veinsmobility 	maxSpeed 	13.791334405425
scalar MyScenario.node[167].veinsmobility 	totalDistance 	566.5969240538
scalar MyScenario.node[167].veinsmobility 	totalCO2Emission 	144.41772627014
scalar MyScenario.node[223].appl 	generatedWSMs 	1
scalar MyScenario.node[223].appl 	receivedWSMs 	17
scalar MyScenario.node[223].appl 	generatedBSMs 	0
scalar MyScenario.node[223].appl 	receivedBSMs 	0
scalar MyScenario.node[223].appl 	generatedWSAs 	0
scalar MyScenario.node[223].appl 	receivedWSAs 	0
scalar MyScenario.node[223].nic.phy80211p 	busyTime 	0.00014808510638298
scalar MyScenario.node[223].nic.mac1609_4 	ReceivedUnicastPackets 	0
scalar MyScenario.node[223].nic.mac1609_4 	ReceivedBroadcasts 	17
scalar MyScenario.node[223].nic.mac1609_4 	SentPackets 	1
scalar MyScenario.node[223].nic.mac1609_4 	SNIRLostPackets 	13
scalar MyScenario.node[223].nic.mac1609_4 	RXTXLostPackets 	9
scalar MyScenario.node[223].nic.mac1609_4 	TotalLostPackets 	22
scalar MyScenario.node[223].nic.mac1609_4 	DroppedPacketsInMac 	0
scalar MyScenario.node[223].nic.mac1609_4 	TooLittleTime 	0
scalar MyScenario.node[223].nic.mac1609_4 	TimesIntoBackoff 	1
scalar MyScenario.node[223].nic.mac1609_4 	SlotsBackoff 	0
scalar MyScenario.node[223].nic.mac1609_4 	NumInternalContention 	0
scalar MyScenario.node[223].nic.mac1609_4 	totalBusyTime 	0.005105
scalar MyScenario.node[223].veinsmobility 	startTime 	4
scalar MyScenario.node[223].veinsmobility 	totalTime 	46
scalar MyScenario.node[223].veinsmobility 	stopTime 	51
scalar MyScenario.node[223].veinsmobility 	minSpeed 	1.8881934244651
scalar MyScenario.node[223].veinsmobility 	maxSpeed 	13.88225515727
scalar MyScenario.node[223].veinsmobility 	totalDistance 	569.1879652456
scalar MyScenario.node[223].veinsmobility 	totalCO2Emission 	129.34894310497
scalar MyScenario.node[7].appl 	generatedWSMs 	0
scalar MyScenario.node[7].appl 	receivedWSMs 	0
scalar MyScenario.node[7].appl 	generatedBSMs 	0
scalar MyScenario.node[7].appl 	receivedBSMs 	0
scalar MyScenario.node[7].appl 	generatedWSAs 	0
scalar MyScenario.node[7].appl 	receivedWSAs 	0
scalar MyScenario.node[7].nic.phy80211p 	busyTime 	8.352e-05
scalar MyScenario.node[7].nic.mac1609_4 	ReceivedUnicastPackets 	0
scalar MyScenario.node[7].nic.mac1609_4 	ReceivedBroadcasts 	0
scalar MyScenario.node[7].nic.mac1609_4 	SentPackets 	0
scalar MyScenario.node[7].nic.mac1609_4 	SNIRLostPackets 	18
scalar MyScenario.node[7].nic.mac1609_4 	RXTXLostPackets 	0
scalar MyScenario.node[7].nic.mac1609_4 	TotalLostPackets 	18
scalar MyScenario.node[7].nic.mac1609_4 	DroppedPacketsInMac 	0
scalar MyScenario.node[7].nic.mac1609_4 	TooLittleTime 	0
scalar MyScenario.node[7].nic.mac1609_4 	TimesIntoBackoff 	0
scalar MyScenario.node[7].nic.mac1609_4 	SlotsBackoff 	0
scalar MyScenario.node[7].nic.mac1609_4 	NumInternalContention 	0
scalar MyScenario.node[7].nic.mac1609_4 	totalBusyTime 	0.000696
scalar MyScenario.node[7].veinsmobility 	startTime 	1
scalar MyScenario.node[7].veinsmobility 	totalTime 	49
scalar MyScenario.node[7].veinsmobility 	stopTime 	51
scalar MyScenario.node[7].veinsmobility 	minSpeed 	1.691057888791
scalar MyScenario.node[7].veinsmobility 	maxSpeed 	13.888962083287
scalar MyScenario.node[7].veinsmobility 	totalDistance 	567.20692981863
scalar MyScenario.node[7].veinsmobility 	totalCO2Emission 	160.27886526444
scalar MyScenario.node[36].appl 	generatedWSMs 	1
scalar MyScenario.node[36].appl 	receivedWSMs 	2
scalar MyScenario.node[36].appl 	generatedBSMs 	0
scalar MyScenario.node[36].appl 	receivedBSMs 	0
scalar MyScenario.node[36].appl 	generatedWSAs 	0
scalar MyScenario.node[36].appl 	receivedWSAs 	0
scalar MyScenario.node[36].nic.phy80211p 	busyTime 	0.00025019607843137
scalar MyScenario.node[36].nic.mac1609_4 	ReceivedUnicastPackets 	0
scalar MyScenario.node[36].nic.mac1609_4 	ReceivedBroadcasts 	2
scalar MyScenario.node[36].nic.mac1609_4 	SentPackets 	1
scalar MyScenario.node[36].nic.mac1609_4 	SNIRLostPackets 	53
scalar MyScenario.node[36].nic.mac1609_4 	RXTXLostPackets 	17
scalar MyScenario.node[36].nic.mac1609_4 	TotalLostPackets 	70
scalar MyScenario.node[36].nic.mac1609_4 	DroppedPacketsInMac 	0
scalar MyScenario.node[36].nic.mac1609_4 	TooLittleTime 	0
scalar MyScenario.node[36].nic.mac1609_4 	TimesIntoBackoff 	1
scalar MyScenario.node[36].nic.mac1609_4 	SlotsBackoff 	3
scalar MyScenario.node[36].nic.mac1609_4 	NumInternalContention 	0
scalar MyScenario.node[36].nic.mac1609_4 	totalBusyTime 	0.002553059447
scalar MyScenario.node[36].veinsmobility 	startTime 	1
scalar MyScenario.node[36].veinsmobility 	totalTime 	50
scalar MyScenario.node[36].veinsmobility 	stopTime 	52
scalar MyScenario.node[36].veinsmobility 	minSpeed 	1.4824219500879
scalar MyScenario.node[36].veinsmobility 	maxSpeed 	13.8906010943
scalar MyScenario.node[36].veinsmobility 	totalDistance 	565.42086566306
scalar MyScenario.node[36].veinsmobility 	totalCO2Emission 	160.73320773237
scalar MyScenario.node[88].appl 	generatedWSMs 	1
scalar MyScenario.node[88].appl 	receivedWSMs 	1
scalar MyScenario.node[88].appl 	generatedBSMs 	0
scalar MyScenario.node[88].appl 	receivedBSMs 	0
scalar MyScenario.node[88].appl 	generatedWSAs 	0
scalar MyScenario.node[88].appl 	receivedWSAs 	0
scalar MyScenario.node[88].nic.phy80211p 	busyTime 	1.8196078431373e-05
scalar MyScenario.node[88].nic.mac1609_4 	ReceivedUnicastPackets 	0
scalar MyScenario.node[88].nic.mac1609_4 	ReceivedBroadcasts 	1
scalar MyScenario.node[88].nic.mac1609_4 	SentPackets 	1
scalar MyScenario.node[88].nic.mac1609_4 	SNIRLostPackets 	3
scalar MyScenario.node[88].nic.mac1609_4 	RXTXLostPackets 	8
scalar MyScenario.node[88].nic.mac1609_4 	TotalLostPackets 	11
scalar MyScenario.node[88].nic.mac1609_4 	DroppedPacketsInMac 	0
scalar MyScenario.node[88].nic.mac1609_4 	TooLittleTime 	0
scalar MyScenario.node[88].nic.mac1609_4 	TimesIntoBackoff 	1
scalar MyScenario.node[88].nic.mac1609_4 	SlotsBackoff 	2
scalar MyScenario.node[88].nic.mac1609_4 	NumInternalContention 	0
scalar MyScenario.node[88].nic.mac1609_4 	totalBusyTime 	0.000929094711
scalar MyScenario.node[88].veinsmobility 	startTime 	1
scalar MyScenario.node[88].veinsmobility 	totalTime 	50
scalar MyScenario.node[88].veinsmobility 	stopTime 	52
scalar MyScenario.node[88].veinsmobility 	minSpeed 	2.5376916082343
scalar MyScenario.node[88].veinsmobility 	maxSpeed 	13.821329067997
scalar MyScenario.node[88].veinsmobility 	totalDistance 	569.40768026125
scalar MyScenario.node[88].veinsmobility 	totalCO2Emission 	158.2797229163
scalar MyScenario.node[166].appl 	generatedWSMs 	1
scalar MyScenario.node[166].appl 	receivedWSMs 	1
scalar MyScenario.node[166].appl 	generatedBSMs 	0
scalar MyScenario.node[166].appl 	receivedBSMs 	0
scalar MyScenario.node[166].appl 	generatedWSAs 	0
scalar MyScenario.node[166].appl 	receivedWSAs 	0
scalar MyScenario.node[166].nic.phy80211p 	busyTime 	0.00011827450980392
scalar MyScenario.node[166].nic.mac1609_4 	ReceivedUnicastPackets 	0
scalar MyScenario.node[166].nic.mac1609_4 	ReceivedBroadcasts 	1
scalar MyScenario.node[166].nic.mac1609_4 	SentPackets 	1
scalar MyScenario.node[166].nic.mac1609_4 	SNIRLostPackets 	25
scalar MyScenario.node[166].nic.mac1609_4 	RXTXLostPackets 	10
scalar MyScenario.node[166].nic.mac1609_4 	TotalLostPackets 	35
scalar MyScenario.node[166].nic.mac1609_4 	DroppedPacketsInMac 	0
scalar MyScenario.node[166].nic.mac1609_4 	TooLittleTime 	0
scalar MyScenario.node[166].nic.mac1609_4 	TimesIntoBackoff 	1
scalar MyScenario.node[166].nic.mac1609_4 	SlotsBackoff 	0
scalar MyScenario.node[166].nic.mac1609_4 	NumInternalContention 	0
scalar MyScenario.node[166].nic.mac1609_4 	totalBusyTime 	0.002089045498
scalar MyScenario.node[166].veinsmobility 	startTime 	1
scalar MyScenario.node[166].veinsmobility 	totalTime 	50
scalar MyScenario.node[166].veinsmobility 	stopTime 	52
scalar MyScenario.node[166].veinsmobility 	minSpeed 	5.1052883023685e-05
scalar MyScenario.node[166].veinsmobility 	maxSpeed 	13.823278706311
scalar MyScenario.node[166].veinsmobility 	totalDistance 	469.49989530657
scalar MyScenario.node[166].veinsmobility 	totalCO2Emission 	151.34790000281
scalar MyScenario.node[266].appl 	generatedWSMs 	0
scalar MyScenario.node[266].appl 	receivedWSMs 	0
scalar MyScenario.node[266].appl 	generatedBSMs 	0
scalar MyScenario.node[266].appl 	receivedBSMs 	0
scalar MyScenario.node[266].appl 	generatedWSAs 	0
scalar MyScenario.node[266].appl 	receivedWSAs 	0
scalar MyScenario.node[266].nic.phy80211p 	busyTime 	9.1833333333333e-05
scalar MyScenario.node[266].nic.mac1609_4 	ReceivedUnicastPackets 	0
scalar MyScenario.node[266].nic.mac1609_4 	ReceivedBroadcasts 	0
scalar MyScenario.node[266].nic.mac1609_4 	SentPackets 	0
scalar MyScenario.node[266].nic.mac1609_4 	SNIRLostPackets 	19
scalar MyScenario.node[266].nic.mac1609_4 	RXTXLostPackets 	0
scalar MyScenario.node[266].nic.mac1609_4 	TotalLostPackets 	19
scalar MyScenario.node[266].nic.mac1609_4 	DroppedPacketsInMac 	0
scalar MyScenario.node[266].nic.mac1609_4 	TooLittleTime 	0
scalar MyScenario.node[266].nic.mac1609_4 	TimesIntoBackoff 	0
scalar MyScenario.node[266].nic.mac1609_4 	SlotsBackoff 	0
scalar MyScenario.node[266].nic.mac1609_4 	NumInternalContention 	0
scalar MyScenario.node[266].nic.mac1609_4 	totalBusyTime 	0.00116
scalar MyScenario.node[266].veinsmobility 	startTime 	4
scalar MyScenario.node[266].veinsmobility 	totalTime 	47
scalar MyScenario.node[266].veinsmobility 	stopTime 	52
scalar MyScenario.node[266].veinsmobility 	minSpeed 	2.1296945138251
scalar MyScenario.node[266].veinsmobility 	maxSpeed 	13.732353780512
scalar MyScenario.node[266].veinsmobility 	totalDistance 	483.27436954465
scalar MyScenario.node[266].veinsmobility 	totalCO2Emission 	173.5048191953
scalar MyScenario.node[170].appl 	generatedWSMs 	0
scalar MyScenario.node[170].appl 	receivedWSMs 	0
scalar MyScenario.node[170].appl 	generatedBSMs 	0
scalar MyScenario.node[170].appl 	receivedBSMs 	0
scalar MyScenario.node[170].appl 	generatedWSAs 	0
scalar MyScenario.node[170].appl 	receivedWSAs 	0
scalar MyScenario.node[170].nic.phy80211p 	busyTime 	2.2307692307692e-05
scalar MyScenario.node[170].nic.mac1609_4 	ReceivedUnicastPackets 	0
scalar MyScenario.node[170].nic.mac1609_4 	ReceivedBroadcasts 	0
scalar MyScenario.node[170].nic.mac1609_4 	SentPackets 	0
scalar MyScenario.node[170].nic.mac1609_4 	SNIRLostPackets 	5
scalar MyScenario.node[170].nic.mac1609_4 	RXTXLostPackets 	0
scalar MyScenario.node[170].nic.mac1609_4 	TotalLostPackets 	5
scalar MyScenario.node[170].nic.mac1609_4 	DroppedPacketsInMac 	0
scalar MyScenario.node[170].nic.mac1609_4 	TooLittleTime 	0
scalar MyScenario.node[170].nic.mac1609_4 	TimesIntoBackoff 	0
scalar MyScenario.node[170].nic.mac1609_4 	SlotsBackoff 	0
scalar MyScenario.node[170].nic.mac1609_4 	NumInternalContention 	0
scalar MyScenario.node[170].nic.mac1609_4 	totalBusyTime 	0.000232
scalar MyScenario.node[170].veinsmobility 	startTime 	1
scalar MyScenario.node[170].veinsmobility 	totalTime 	51
scalar MyScenario.node[170].veinsmobility 	stopTime 	53
scalar MyScenario.node[170].veinsmobility 	minSpeed 	1.6640909610782
scalar MyScenario.node[170].veinsmobility 	maxSpeed 	13.881852508336
scalar MyScenario.node[170].veinsmobility 	totalDistance 	577.09229140106
scalar MyScenario.node[170].veinsmobility 	totalCO2Emission 	175.32508423962
scalar MyScenario.node[119].appl 	generatedWSMs 	1
scalar MyScenario.node[119].appl 	receivedWSMs 	3
scalar MyScenario.node[119].appl 	generatedBSMs 	0
scalar MyScenario.node[119].appl 	receivedBSMs 	0
scalar MyScenario.node[119].appl 	generatedWSAs 	0
scalar MyScenario.node[119].appl 	receivedWSAs 	0
scalar MyScenario.node[119].nic.phy80211p 	busyTime 	0.00010707692307692
[...]
scalar MyScenario.node[47].nic.mac1609_4 	TimesIntoBackoff 	0
scalar MyScenario.node[47].nic.mac1609_4 	SlotsBackoff 	0
scalar MyScenario.node[47].nic.mac1609_4 	NumInternalContention 	0
scalar MyScenario.node[47].nic.mac1609_4 	totalBusyTime 	0.000232
scalar MyScenario.node[47].veinsmobility 	startTime 	1
scalar MyScenario.node[47].veinsmobility 	totalTime 	152
scalar MyScenario.node[47].veinsmobility 	stopTime 	154
scalar MyScenario.node[47].veinsmobility 	minSpeed 	6.8818180408311e-05
scalar MyScenario.node[47].veinsmobility 	maxSpeed 	13.882314115367
scalar MyScenario.node[47].veinsmobility 	totalDistance 	1468.7311675982
scalar MyScenario.node[47].veinsmobility 	totalCO2Emission 	464.40339208704
scalar MyScenario.node[104].appl 	generatedWSMs 	1
scalar MyScenario.node[104].appl 	receivedWSMs 	1
scalar MyScenario.node[104].appl 	generatedBSMs 	0
scalar MyScenario.node[104].appl 	receivedBSMs 	0
scalar MyScenario.node[104].appl 	generatedWSAs 	0
scalar MyScenario.node[104].appl 	receivedWSAs 	0
scalar MyScenario.node[104].nic.phy80211p 	busyTime 	4.5490196078431e-06
scalar MyScenario.node[104].nic.mac1609_4 	ReceivedUnicastPackets 	0
scalar MyScenario.node[104].nic.mac1609_4 	ReceivedBroadcasts 	1
scalar MyScenario.node[104].nic.mac1609_4 	SentPackets 	1
scalar MyScenario.node[104].nic.mac1609_4 	SNIRLostPackets 	2
scalar MyScenario.node[104].nic.mac1609_4 	RXTXLostPackets 	20
scalar MyScenario.node[104].nic.mac1609_4 	TotalLostPackets 	22
scalar MyScenario.node[104].nic.mac1609_4 	DroppedPacketsInMac 	0
scalar MyScenario.node[104].nic.mac1609_4 	TooLittleTime 	0
scalar MyScenario.node[104].nic.mac1609_4 	TimesIntoBackoff 	1
scalar MyScenario.node[104].nic.mac1609_4 	SlotsBackoff 	3
scalar MyScenario.node[104].nic.mac1609_4 	NumInternalContention 	0
scalar MyScenario.node[104].nic.mac1609_4 	totalBusyTime 	0.000697103289
scalar MyScenario.node[104].veinsmobility 	startTime 	1
scalar MyScenario.node[104].veinsmobility 	totalTime 	152
scalar MyScenario.node[104].veinsmobility 	stopTime 	154
scalar MyScenario.node[104].veinsmobility 	minSpeed 	2.3462032863076e-07
scalar MyScenario.node[104].veinsmobility 	maxSpeed 	13.87845778598
scalar MyScenario.node[104].veinsmobility 	totalDistance 	1270.8147466856
scalar MyScenario.node[104].veinsmobility 	totalCO2Emission 	372.35307064664
scalar MyScenario.node[232].appl 	generatedWSMs 	1
scalar MyScenario.node[232].appl 	receivedWSMs 	2
scalar MyScenario.node[232].appl 	generatedBSMs 	0
scalar MyScenario.node[232].appl 	receivedBSMs 	0
scalar MyScenario.node[232].appl 	generatedWSAs 	0
scalar MyScenario.node[232].appl 	receivedWSAs 	0
scalar MyScenario.node[232].nic.phy80211p 	busyTime 	5.1894736842105e-05
scalar MyScenario.node[232].nic.mac1609_4 	ReceivedUnicastPackets 	0
scalar MyScenario.node[232].nic.mac1609_4 	ReceivedBroadcasts 	2
scalar MyScenario.node[232].nic.mac1609_4 	SentPackets 	1
scalar MyScenario.node[232].nic.mac1609_4 	SNIRLostPackets 	32
scalar MyScenario.node[232].nic.mac1609_4 	RXTXLostPackets 	14
scalar MyScenario.node[232].nic.mac1609_4 	TotalLostPackets 	46
scalar MyScenario.node[232].nic.mac1609_4 	DroppedPacketsInMac 	0
scalar MyScenario.node[232].nic.mac1609_4 	TooLittleTime 	0
scalar MyScenario.node[232].nic.mac1609_4 	TimesIntoBackoff 	1
scalar MyScenario.node[232].nic.mac1609_4 	SlotsBackoff 	1
scalar MyScenario.node[232].nic.mac1609_4 	NumInternalContention 	0
scalar MyScenario.node[232].nic.mac1609_4 	totalBusyTime 	0.002553153092
scalar MyScenario.node[232].veinsmobility 	startTime 	4
scalar MyScenario.node[232].veinsmobility 	totalTime 	151
scalar MyScenario.node[232].veinsmobility 	stopTime 	156
scalar MyScenario.node[232].veinsmobility 	minSpeed 	0.0044034603010877
scalar MyScenario.node[232].veinsmobility 	maxSpeed 	13.898552687629
scalar MyScenario.node[232].veinsmobility 	totalDistance 	1366.7939243206
scalar MyScenario.node[232].veinsmobility 	totalCO2Emission 	439.95413304831
scalar MyScenario.node[183].appl 	generatedWSMs 	0
scalar MyScenario.node[183].appl 	receivedWSMs 	0
scalar MyScenario.node[183].appl 	generatedBSMs 	0
scalar MyScenario.node[183].appl 	receivedBSMs 	0
scalar MyScenario.node[183].appl 	generatedWSAs 	0
scalar MyScenario.node[183].appl 	receivedWSAs 	0
scalar MyScenario.node[183].nic.phy80211p 	busyTime 	1.3384615384615e-05
scalar MyScenario.node[183].nic.mac1609_4 	ReceivedUnicastPackets 	0
scalar MyScenario.node[183].nic.mac1609_4 	ReceivedBroadcasts 	0
scalar MyScenario.node[183].nic.mac1609_4 	SentPackets 	0
scalar MyScenario.node[183].nic.mac1609_4 	SNIRLostPackets 	9
scalar MyScenario.node[183].nic.mac1609_4 	RXTXLostPackets 	0
scalar MyScenario.node[183].nic.mac1609_4 	TotalLostPackets 	9
scalar MyScenario.node[183].nic.mac1609_4 	DroppedPacketsInMac 	0
scalar MyScenario.node[183].nic.mac1609_4 	TooLittleTime 	0
scalar MyScenario.node[183].nic.mac1609_4 	TimesIntoBackoff 	0
scalar MyScenario.node[183].nic.mac1609_4 	SlotsBackoff 	0
scalar MyScenario.node[183].nic.mac1609_4 	NumInternalContention 	0
scalar MyScenario.node[183].nic.mac1609_4 	totalBusyTime 	0.000232
scalar MyScenario.node[183].veinsmobility 	startTime 	1
scalar MyScenario.node[183].veinsmobility 	totalTime 	155
scalar MyScenario.node[183].veinsmobility 	stopTime 	157
scalar MyScenario.node[183].veinsmobility 	minSpeed 	0.03077318862023
scalar MyScenario.node[183].veinsmobility 	maxSpeed 	13.874692809908
scalar MyScenario.node[183].veinsmobility 	totalDistance 	1564.3533848108
scalar MyScenario.node[183].veinsmobility 	totalCO2Emission 	495.23710645626
scalar MyScenario.node[274].appl 	generatedWSMs 	1
scalar MyScenario.node[274].appl 	receivedWSMs 	13
scalar MyScenario.node[274].appl 	generatedBSMs 	0
scalar MyScenario.node[274].appl 	receivedBSMs 	0
scalar MyScenario.node[274].appl 	generatedWSAs 	0
scalar MyScenario.node[274].appl 	receivedWSAs 	0
scalar MyScenario.node[274].nic.phy80211p 	busyTime 	2.6119205298013e-05
scalar MyScenario.node[274].nic.mac1609_4 	ReceivedUnicastPackets 	0
scalar MyScenario.node[274].nic.mac1609_4 	ReceivedBroadcasts 	13
scalar MyScenario.node[274].nic.mac1609_4 	SentPackets 	1
scalar MyScenario.node[274].nic.mac1609_4 	SNIRLostPackets 	4
scalar MyScenario.node[274].nic.mac1609_4 	RXTXLostPackets 	7
scalar MyScenario.node[274].nic.mac1609_4 	TotalLostPackets 	11
scalar MyScenario.node[274].nic.mac1609_4 	DroppedPacketsInMac 	0
scalar MyScenario.node[274].nic.mac1609_4 	TooLittleTime 	0
scalar MyScenario.node[274].nic.mac1609_4 	TimesIntoBackoff 	1
scalar MyScenario.node[274].nic.mac1609_4 	SlotsBackoff 	3
scalar MyScenario.node[274].nic.mac1609_4 	NumInternalContention 	0
scalar MyScenario.node[274].nic.mac1609_4 	totalBusyTime 	0.003945
scalar MyScenario.node[274].veinsmobility 	startTime 	7
scalar MyScenario.node[274].veinsmobility 	totalTime 	150
scalar MyScenario.node[274].veinsmobility 	stopTime 	158
scalar MyScenario.node[274].veinsmobility 	minSpeed 	1.2430512259757e-06
scalar MyScenario.node[274].veinsmobility 	maxSpeed 	13.890852413303
scalar MyScenario.node[274].veinsmobility 	totalDistance 	1272.2350897832
scalar MyScenario.node[274].veinsmobility 	totalCO2Emission 	432.07905659761
scalar MyScenario.node[23].appl 	generatedWSMs 	1
scalar MyScenario.node[23].appl 	receivedWSMs 	1
scalar MyScenario.node[23].appl 	generatedBSMs 	0
scalar MyScenario.node[23].appl 	receivedBSMs 	0
scalar MyScenario.node[23].appl 	generatedWSAs 	0
scalar MyScenario.node[23].appl 	receivedWSAs 	0
scalar MyScenario.node[23].nic.phy80211p 	busyTime 	5.873417721519e-06
scalar MyScenario.node[23].nic.mac1609_4 	ReceivedUnicastPackets 	0
scalar MyScenario.node[23].nic.mac1609_4 	ReceivedBroadcasts 	1
scalar MyScenario.node[23].nic.mac1609_4 	SentPackets 	1
scalar MyScenario.node[23].nic.mac1609_4 	SNIRLostPackets 	3
scalar MyScenario.node[23].nic.mac1609_4 	RXTXLostPackets 	19
scalar MyScenario.node[23].nic.mac1609_4 	TotalLostPackets 	22
scalar MyScenario.node[23].nic.mac1609_4 	DroppedPacketsInMac 	0
scalar MyScenario.node[23].nic.mac1609_4 	TooLittleTime 	0
scalar MyScenario.node[23].nic.mac1609_4 	TimesIntoBackoff 	1
scalar MyScenario.node[23].nic.mac1609_4 	SlotsBackoff 	0
scalar MyScenario.node[23].nic.mac1609_4 	NumInternalContention 	0
scalar MyScenario.node[23].nic.mac1609_4 	totalBusyTime 	0.000929032681
scalar MyScenario.node[23].veinsmobility 	startTime 	1
scalar MyScenario.node[23].veinsmobility 	totalTime 	157
scalar MyScenario.node[23].veinsmobility 	stopTime 	159
scalar MyScenario.node[23].veinsmobility 	minSpeed 	1.8942723903511e-05
scalar MyScenario.node[23].veinsmobility 	maxSpeed 	13.879162983992
scalar MyScenario.node[23].veinsmobility 	totalDistance 	1375.9504220993
scalar MyScenario.node[23].veinsmobility 	totalCO2Emission 	455.84064091376
scalar MyScenario.node[222].appl 	generatedWSMs 	1
scalar MyScenario.node[222].appl 	receivedWSMs 	16
scalar MyScenario.node[222].appl 	generatedBSMs 	0
scalar MyScenario.node[222].appl 	receivedBSMs 	0
scalar MyScenario.node[222].appl 	generatedWSAs 	0
scalar MyScenario.node[222].appl 	receivedWSAs 	0
scalar MyScenario.node[222].nic.phy80211p 	busyTime 	7.5846153846154e-05
scalar MyScenario.node[222].nic.mac1609_4 	ReceivedUnicastPackets 	0
scalar MyScenario.node[222].nic.mac1609_4 	ReceivedBroadcasts 	16
scalar MyScenario.node[222].nic.mac1609_4 	SentPackets 	1
scalar MyScenario.node[222].nic.mac1609_4 	SNIRLostPackets 	35
scalar MyScenario.node[222].nic.mac1609_4 	RXTXLostPackets 	9
scalar MyScenario.node[222].nic.mac1609_4 	TotalLostPackets 	44
scalar MyScenario.node[222].nic.mac1609_4 	DroppedPacketsInMac 	0
scalar MyScenario.node[222].nic.mac1609_4 	TooLittleTime 	0
scalar MyScenario.node[222].nic.mac1609_4 	TimesIntoBackoff 	1
scalar MyScenario.node[222].nic.mac1609_4 	SlotsBackoff 	3
scalar MyScenario.node[222].nic.mac1609_4 	NumInternalContention 	0
scalar MyScenario.node[222].nic.mac1609_4 	totalBusyTime 	0.006497034192
scalar MyScenario.node[222].veinsmobility 	startTime 	4
scalar MyScenario.node[222].veinsmobility 	totalTime 	155
scalar MyScenario.node[222].veinsmobility 	stopTime 	160
scalar MyScenario.node[222].veinsmobility 	minSpeed 	2.5561118899574e-07
scalar MyScenario.node[222].veinsmobility 	maxSpeed 	13.869916905579
scalar MyScenario.node[222].veinsmobility 	totalDistance 	1377.9951781082
scalar MyScenario.node[222].veinsmobility 	totalCO2Emission 	432.27285247672
scalar MyScenario.node[120].appl 	generatedWSMs 	0
scalar MyScenario.node[120].appl 	receivedWSMs 	0
scalar MyScenario.node[120].appl 	generatedBSMs 	0
scalar MyScenario.node[120].appl 	receivedBSMs 	0
scalar MyScenario.node[120].appl 	generatedWSAs 	0
scalar MyScenario.node[120].appl 	receivedWSAs 	0
scalar MyScenario.node[120].nic.phy80211p 	busyTime 	3.0562874251497e-05
scalar MyScenario.node[120].nic.mac1609_4 	ReceivedUnicastPackets 	0
scalar MyScenario.node[120].nic.mac1609_4 	ReceivedBroadcasts 	0
scalar MyScenario.node[120].nic.mac1609_4 	SentPackets 	0
scalar MyScenario.node[120].nic.mac1609_4 	SNIRLostPackets 	22
scalar MyScenario.node[120].nic.mac1609_4 	RXTXLostPackets 	0
scalar MyScenario.node[120].nic.mac1609_4 	TotalLostPackets 	22
scalar MyScenario.node[120].nic.mac1609_4 	DroppedPacketsInMac 	0
scalar MyScenario.node[120].nic.mac1609_4 	TooLittleTime 	0
scalar MyScenario.node[120].nic.mac1609_4 	TimesIntoBackoff 	0
scalar MyScenario.node[120].nic.mac1609_4 	SlotsBackoff 	0
scalar MyScenario.node[120].nic.mac1609_4 	NumInternalContention 	0
scalar MyScenario.node[120].nic.mac1609_4 	totalBusyTime 	0.000928
scalar MyScenario.node[120].veinsmobility 	startTime 	1
scalar MyScenario.node[120].veinsmobility 	totalTime 	166
scalar MyScenario.node[120].veinsmobility 	stopTime 	168
scalar MyScenario.node[120].veinsmobility 	minSpeed 	2.7827649850401e-09
scalar MyScenario.node[120].veinsmobility 	maxSpeed 	13.885258987988
scalar MyScenario.node[120].veinsmobility 	totalDistance 	1476.8669127392
scalar MyScenario.node[120].veinsmobility 	totalCO2Emission 	490.10723399388
scalar MyScenario.node[185].appl 	generatedWSMs 	1
scalar MyScenario.node[185].appl 	receivedWSMs 	17
scalar MyScenario.node[185].appl 	generatedBSMs 	0
scalar MyScenario.node[185].appl 	receivedBSMs 	0
scalar MyScenario.node[185].appl 	generatedWSAs 	0
scalar MyScenario.node[185].appl 	receivedWSAs 	0
scalar MyScenario.node[185].nic.phy80211p 	busyTime 	6.0577777777778e-05
scalar MyScenario.node[185].nic.mac1609_4 	ReceivedUnicastPackets 	0
scalar MyScenario.node[185].nic.mac1609_4 	ReceivedBroadcasts 	17
scalar MyScenario.node[185].nic.mac1609_4 	SentPackets 	1
scalar MyScenario.node[185].nic.mac1609_4 	SNIRLostPackets 	30
scalar MyScenario.node[185].nic.mac1609_4 	RXTXLostPackets 	16
scalar MyScenario.node[185].nic.mac1609_4 	TotalLostPackets 	46
scalar MyScenario.node[185].nic.mac1609_4 	DroppedPacketsInMac 	0
scalar MyScenario.node[185].nic.mac1609_4 	TooLittleTime 	0
scalar MyScenario.node[185].nic.mac1609_4 	TimesIntoBackoff 	1
scalar MyScenario.node[185].nic.mac1609_4 	SlotsBackoff 	2
scalar MyScenario.node[185].nic.mac1609_4 	NumInternalContention 	0
scalar MyScenario.node[185].nic.mac1609_4 	totalBusyTime 	0.005569022154
scalar MyScenario.node[185].veinsmobility 	startTime 	1
scalar MyScenario.node[185].veinsmobility 	totalTime 	179
scalar MyScenario.node[185].veinsmobility 	stopTime 	181
scalar MyScenario.node[185].veinsmobility 	minSpeed 	3.5255172290279e-05
scalar MyScenario.node[185].veinsmobility 	maxSpeed 	13.886137320078
scalar MyScenario.node[185].veinsmobility 	totalDistance 	1578.8022008335
scalar MyScenario.node[185].veinsmobility 	totalCO2Emission 	513.36399443881
scalar MyScenario.node[242].appl 	generatedWSMs 	1
scalar MyScenario.node[242].appl 	receivedWSMs 	16
scalar MyScenario.node[242].appl 	generatedBSMs 	0
scalar MyScenario.node[242].appl 	receivedBSMs 	0
scalar MyScenario.node[242].appl 	generatedWSAs 	0
scalar MyScenario.node[242].appl 	receivedWSAs 	0
scalar MyScenario.node[242].nic.phy80211p 	busyTime 	3.9101123595506e-05
scalar MyScenario.node[242].nic.mac1609_4 	ReceivedUnicastPackets 	0
scalar MyScenario.node[242].nic.mac1609_4 	ReceivedBroadcasts 	16
scalar MyScenario.node[242].nic.mac1609_4 	SentPackets 	1
scalar MyScenario.node[242].nic.mac1609_4 	SNIRLostPackets 	14
scalar MyScenario.node[242].nic.mac1609_4 	RXTXLostPackets 	13
scalar MyScenario.node[242].nic.mac1609_4 	TotalLostPackets 	27
scalar MyScenario.node[242].nic.mac1609_4 	DroppedPacketsInMac 	0
scalar MyScenario.node[242].nic.mac1609_4 	TooLittleTime 	0
scalar MyScenario.node[242].nic.mac1609_4 	TimesIntoBackoff 	1
scalar MyScenario.node[242].nic.mac1609_4 	SlotsBackoff 	2
scalar MyScenario.node[242].nic.mac1609_4 	NumInternalContention 	0
scalar MyScenario.node[242].nic.mac1609_4 	totalBusyTime 	0.004873
scalar MyScenario.node[242].veinsmobility 	startTime 	4
scalar MyScenario.node[242].veinsmobility 	totalTime 	177
scalar MyScenario.node[242].veinsmobility 	stopTime 	182
scalar MyScenario.node[242].veinsmobility 	minSpeed 	0.00096957134151125
scalar MyScenario.node[242].veinsmobility 	maxSpeed 	13.898484010482
scalar MyScenario.node[242].veinsmobility 	totalDistance 	1462.3152126564
scalar MyScenario.node[242].veinsmobility 	totalCO2Emission 	490.11659852968
scalar MyScenario.node[199].appl 	generatedWSMs 	0
scalar MyScenario.node[199].appl 	receivedWSMs 	0
scalar MyScenario.node[199].appl 	generatedBSMs 	0
scalar MyScenario.node[199].appl 	receivedBSMs 	0
scalar MyScenario.node[199].appl 	generatedWSAs 	0
scalar MyScenario.node[199].appl 	receivedWSAs 	0
scalar MyScenario.node[199].nic.phy80211p 	busyTime 	3.0933333333333e-05
scalar MyScenario.node[199].nic.mac1609_4 	ReceivedUnicastPackets 	0
scalar MyScenario.node[199].nic.mac1609_4 	ReceivedBroadcasts 	0
scalar MyScenario.node[199].nic.mac1609_4 	SentPackets 	0
scalar MyScenario.node[199].nic.mac1609_4 	SNIRLostPackets 	24
scalar MyScenario.node[199].nic.mac1609_4 	RXTXLostPackets 	0
scalar MyScenario.node[199].nic.mac1609_4 	TotalLostPackets 	24
scalar MyScenario.node[199].nic.mac1609_4 	DroppedPacketsInMac 	0
scalar MyScenario.node[199].nic.mac1609_4 	TooLittleTime 	0
scalar MyScenario.node[199].nic.mac1609_4 	TimesIntoBackoff 	0
scalar MyScenario.node[199].nic.mac1609_4 	SlotsBackoff 	0
scalar MyScenario.node[199].nic.mac1609_4 	NumInternalContention 	0
scalar MyScenario.node[199].nic.mac1609_4 	totalBusyTime 	0.000696
scalar MyScenario.node[199].veinsmobility 	startTime 	4
scalar MyScenario.node[199].veinsmobility 	totalTime 	179
scalar MyScenario.node[199].veinsmobility 	stopTime 	184
scalar MyScenario.node[199].veinsmobility 	minSpeed 	1.1412602287866e-07
scalar MyScenario.node[199].veinsmobility 	maxSpeed 	13.89991696917
scalar MyScenario.node[199].veinsmobility 	totalDistance 	1566.4032674382
scalar MyScenario.node[199].veinsmobility 	totalCO2Emission 	507.41756601071
scalar MyScenario.node[99].appl 	generatedWSMs 	1
scalar MyScenario.node[99].appl 	receivedWSMs 	11
scalar MyScenario.node[99].appl 	generatedBSMs 	0
scalar MyScenario.node[99].appl 	receivedBSMs 	0
scalar MyScenario.node[99].appl 	generatedWSAs 	0
scalar MyScenario.node[99].appl 	receivedWSAs 	0
scalar MyScenario.node[99].nic.phy80211p 	busyTime 	3.741935483871e-05
scalar MyScenario.node[99].nic.mac1609_4 	ReceivedUnicastPackets 	0
scalar MyScenario.node[99].nic.mac1609_4 	ReceivedBroadcasts 	11
scalar MyScenario.node[99].nic.mac1609_4 	SentPackets 	1
scalar MyScenario.node[99].nic.mac1609_4 	SNIRLostPackets 	19
scalar MyScenario.node[99].nic.mac1609_4 	RXTXLostPackets 	1
scalar MyScenario.node[99].nic.mac1609_4 	TotalLostPackets 	20
scalar MyScenario.node[99].nic.mac1609_4 	DroppedPacketsInMac 	0
scalar MyScenario.node[99].nic.mac1609_4 	TooLittleTime 	0
scalar MyScenario.node[99].nic.mac1609_4 	TimesIntoBackoff 	1
scalar MyScenario.node[99].nic.mac1609_4 	SlotsBackoff 	3
scalar MyScenario.node[99].nic.mac1609_4 	NumInternalContention 	0
scalar MyScenario.node[99].nic.mac1609_4 	totalBusyTime 	0.004409
scalar MyScenario.node[99].veinsmobility 	startTime 	1
scalar MyScenario.node[99].veinsmobility 	totalTime 	185
scalar MyScenario.node[99].veinsmobility 	stopTime 	187
scalar MyScenario.node[99].veinsmobility 	minSpeed 	7.8046228522401e-08
scalar MyScenario.node[99].veinsmobility 	maxSpeed 	13.867224124703
scalar MyScenario.node[99].veinsmobility 	totalDistance 	1468.2874033527
scalar MyScenario.node[99].veinsmobility 	totalCO2Emission 	512.98439046691
scalar MyScenario.node[295].appl 	generatedWSMs 	0
scalar MyScenario.node[295].appl 	receivedWSMs 	0
scalar MyScenario.node[295].appl 	generatedBSMs 	0
scalar MyScenario.node[295].appl 	receivedBSMs 	0
scalar MyScenario.node[295].appl 	generatedWSAs 	0
scalar MyScenario.node[295].appl 	receivedWSAs 	0
scalar MyScenario.node[295].nic.phy80211p 	busyTime 	1.8913043478261e-05
scalar MyScenario.node[295].nic.mac1609_4 	ReceivedUnicastPackets 	0
scalar MyScenario.node[295].nic.mac1609_4 	ReceivedBroadcasts 	0
scalar MyScenario.node[295].nic.mac1609_4 	SentPackets 	0
scalar MyScenario.node[295].nic.mac1609_4 	SNIRLostPackets 	15
scalar MyScenario.node[295].nic.mac1609_4 	RXTXLostPackets 	0
scalar MyScenario.node[295].nic.mac1609_4 	TotalLostPackets 	15
scalar MyScenario.node[295].nic.mac1609_4 	DroppedPacketsInMac 	0
scalar MyScenario.node[295].nic.mac1609_4 	TooLittleTime 	0
scalar MyScenario.node[295].nic.mac1609_4 	TimesIntoBackoff 	0
scalar MyScenario.node[295].nic.mac1609_4 	SlotsBackoff 	0
scalar MyScenario.node[295].nic.mac1609_4 	NumInternalContention 	0
scalar MyScenario.node[295].nic.mac1609_4 	totalBusyTime 	0.000928058324
scalar MyScenario.node[295].veinsmobility 	startTime 	10
scalar MyScenario.node[295].veinsmobility 	totalTime 	183
scalar MyScenario.node[295].veinsmobility 	stopTime 	194
scalar MyScenario.node[295].veinsmobility 	minSpeed 	9.1908293777283e-06
scalar MyScenario.node[295].veinsmobility 	maxSpeed 	13.886685586465
scalar MyScenario.node[295].veinsmobility 	totalDistance 	1678.2195913025
scalar MyScenario.node[295].veinsmobility 	totalCO2Emission 	537.93926675897
