version 2
run General-9-20170829-17:38:59-8100
attr configname General
attr datetime 20170829-17:38:59
attr density 100
attr experiment General
attr inifile omnetpp.ini
attr iterationvars $density=100
attr iterationvars2 "$density=100, $repetition=9"
attr measurement $density=100
attr network com.liborio.pi.MyScenario
attr processid 8100
attr repetition 9
attr replication #9
attr resultdir results
attr runnumber 9
attr seedset 9
param **.coreDebug false
param **.debug false
param *.**.nic.mac1609_4.bitrate 6Mbps
param *.**.nic.mac1609_4.txPower 20mW
param *.**.nic.mac1609_4.useServiceChannel true
param *.**.nic.phy80211p.analogueModels "xmldoc(\"config.xml\")"
param *.**.nic.phy80211p.antenna "xmldoc(\"antenna.xml\", \"/root/Antenna[@id='monopole']\")"
param *.**.nic.phy80211p.decider "xmldoc(\"config.xml\")"
param *.**.nic.phy80211p.sensitivity -84.39dBm
param *.**.nic.phy80211p.thermalNoise -110dBm
param *.**.nic.phy80211p.usePropagationDelay true
param *.**.nic.phy80211p.useThermalNoise true
param *.annotations.draw true
param *.connectionManager.drawMaxIntfDist false
param *.connectionManager.maxInterfDist 2600m
param *.connectionManager.sendDirect true
param *.manager.autoShutdown true
param *.manager.host "\"localhost\""
param *.manager.launchConfig "xmldoc(string(${density = 100, 200, 300, 400})+\"_\"+ string(${repetition})+\".launchd.xml\")"
param *.manager.port 9999
param *.manager.updateInterval 1s
param *.node[*].appl.beaconInterval 1s
param *.node[*].appl.dataOnSch true
param *.node[*].appl.headerLength "80 bit"
param *.node[*].appl.isSource false
param *.node[*].appl.numMsgs 100
param *.node[*].appl.sendBeacons false
param *.node[*].appl.stopTrafficTime 130s
param *.node[*].appl.wsmInterval 3s
param *.node[*].applType "\"Flooding\""
param *.node[*].veinsmobility.x 0
param *.node[*].veinsmobility.y 0
param *.node[*].veinsmobility.z 1.895
param *.node[*].veinsmobilityType.debug true
param *.node[0].appl.isSource true
param *.playgroundSizeX 2500m
param *.playgroundSizeY 2500m
param *.playgroundSizeZ 50m

scalar . 	density 	100
scalar MyScenario.node[67].appl 	generatedWSMs 	1
scalar MyScenario.node[67].appl 	receivedWSMs 	6
scalar MyScenario.node[67].appl 	generatedBSMs 	0
scalar MyScenario.node[67].appl 	receivedBSMs 	0
scalar MyScenario.node[67].appl 	generatedWSAs 	0
scalar MyScenario.node[67].appl 	receivedWSAs 	0
scalar MyScenario.node[67].nic.phy80211p 	busyTime 	0.00013431578947368
scalar MyScenario.node[67].nic.mac1609_4 	ReceivedUnicastPackets 	0
scalar MyScenario.node[67].nic.mac1609_4 	ReceivedBroadcasts 	6
scalar MyScenario.node[67].nic.mac1609_4 	SentPackets 	1
scalar MyScenario.node[67].nic.mac1609_4 	SNIRLostPackets 	5
scalar MyScenario.node[67].nic.mac1609_4 	RXTXLostPackets 	7
scalar MyScenario.node[67].nic.mac1609_4 	TotalLostPackets 	12
scalar MyScenario.node[67].nic.mac1609_4 	DroppedPacketsInMac 	0
scalar MyScenario.node[67].nic.mac1609_4 	TooLittleTime 	0
scalar MyScenario.node[67].nic.mac1609_4 	TimesIntoBackoff 	1
scalar MyScenario.node[67].nic.mac1609_4 	SlotsBackoff 	3
scalar MyScenario.node[67].nic.mac1609_4 	NumInternalContention 	0
scalar MyScenario.node[67].nic.mac1609_4 	totalBusyTime 	0.002321072072
scalar MyScenario.node[67].veinsmobility 	startTime 	1
scalar MyScenario.node[67].veinsmobility 	totalTime 	18
scalar MyScenario.node[67].veinsmobility 	stopTime 	20
scalar MyScenario.node[67].veinsmobility 	minSpeed 	1.881027607061
scalar MyScenario.node[67].veinsmobility 	maxSpeed 	13.847905133129
scalar MyScenario.node[67].veinsmobility 	totalDistance 	174.05554841788
scalar MyScenario.node[67].veinsmobility 	totalCO2Emission 	74.965822165924
scalar MyScenario.node[76].appl 	generatedWSMs 	1
scalar MyScenario.node[76].appl 	receivedWSMs 	1
scalar MyScenario.node[76].appl 	generatedBSMs 	0
scalar MyScenario.node[76].appl 	receivedBSMs 	0
scalar MyScenario.node[76].appl 	generatedWSAs 	0
scalar MyScenario.node[76].appl 	receivedWSAs 	0
scalar MyScenario.node[76].nic.phy80211p 	busyTime 	1.7185185185185e-05
scalar MyScenario.node[76].nic.mac1609_4 	ReceivedUnicastPackets 	0
scalar MyScenario.node[76].nic.mac1609_4 	ReceivedBroadcasts 	1
scalar MyScenario.node[76].nic.mac1609_4 	SentPackets 	1
scalar MyScenario.node[76].nic.mac1609_4 	SNIRLostPackets 	1
scalar MyScenario.node[76].nic.mac1609_4 	RXTXLostPackets 	2
scalar MyScenario.node[76].nic.mac1609_4 	TotalLostPackets 	3
scalar MyScenario.node[76].nic.mac1609_4 	DroppedPacketsInMac 	0
scalar MyScenario.node[76].nic.mac1609_4 	TooLittleTime 	0
scalar MyScenario.node[76].nic.mac1609_4 	TimesIntoBackoff 	1
scalar MyScenario.node[76].nic.mac1609_4 	SlotsBackoff 	2
scalar MyScenario.node[76].nic.mac1609_4 	NumInternalContention 	0
scalar MyScenario.node[76].nic.mac1609_4 	totalBusyTime 	0.000697
scalar MyScenario.node[76].veinsmobility 	startTime 	1
scalar MyScenario.node[76].veinsmobility 	totalTime 	26
scalar MyScenario.node[76].veinsmobility 	stopTime 	28
scalar MyScenario.node[76].veinsmobility 	minSpeed 	1.3708273590542
scalar MyScenario.node[76].veinsmobility 	maxSpeed 	13.825673317583
scalar MyScenario.node[76].veinsmobility 	totalDistance 	278.12245071465
scalar MyScenario.node[76].veinsmobility 	totalCO2Emission 	89.787056922737
scalar MyScenario.node[69].appl 	generatedWSMs 	0
scalar MyScenario.node[69].appl 	receivedWSMs 	0
scalar MyScenario.node[69].appl 	generatedBSMs 	0
scalar MyScenario.node[69].appl 	receivedBSMs 	0
scalar MyScenario.node[69].appl 	generatedWSAs 	0
scalar MyScenario.node[69].appl 	receivedWSAs 	0
scalar MyScenario.node[69].nic.phy80211p 	busyTime 	4.9212121212121e-05
scalar MyScenario.node[69].nic.mac1609_4 	ReceivedUnicastPackets 	0
scalar MyScenario.node[69].nic.mac1609_4 	ReceivedBroadcasts 	0
scalar MyScenario.node[69].nic.mac1609_4 	SentPackets 	0
scalar MyScenario.node[69].nic.mac1609_4 	SNIRLostPackets 	7
scalar MyScenario.node[69].nic.mac1609_4 	RXTXLostPackets 	0
scalar MyScenario.node[69].nic.mac1609_4 	TotalLostPackets 	7
scalar MyScenario.node[69].nic.mac1609_4 	DroppedPacketsInMac 	0
scalar MyScenario.node[69].nic.mac1609_4 	TooLittleTime 	0
scalar MyScenario.node[69].nic.mac1609_4 	TimesIntoBackoff 	0
scalar MyScenario.node[69].nic.mac1609_4 	SlotsBackoff 	0
scalar MyScenario.node[69].nic.mac1609_4 	NumInternalContention 	0
scalar MyScenario.node[69].nic.mac1609_4 	totalBusyTime 	0.000696
scalar MyScenario.node[69].veinsmobility 	startTime 	1
scalar MyScenario.node[69].veinsmobility 	totalTime 	32
scalar MyScenario.node[69].veinsmobility 	stopTime 	34
scalar MyScenario.node[69].veinsmobility 	minSpeed 	2.4239473111462
scalar MyScenario.node[69].veinsmobility 	maxSpeed 	13.877994249365
scalar MyScenario.node[69].veinsmobility 	totalDistance 	374.15481667032
scalar MyScenario.node[69].veinsmobility 	totalCO2Emission 	98.088964318095
scalar MyScenario.node[68].appl 	generatedWSMs 	1
scalar MyScenario.node[68].appl 	receivedWSMs 	4
scalar MyScenario.node[68].appl 	generatedBSMs 	0
scalar MyScenario.node[68].appl 	receivedBSMs 	0
scalar MyScenario.node[68].appl 	generatedWSAs 	0
scalar MyScenario.node[68].appl 	receivedWSAs 	0
scalar MyScenario.node[68].nic.phy80211p 	busyTime 	7.9542857142857e-05
scalar MyScenario.node[68].nic.mac1609_4 	ReceivedUnicastPackets 	0
scalar MyScenario.node[68].nic.mac1609_4 	ReceivedBroadcasts 	4
scalar MyScenario.node[68].nic.mac1609_4 	SentPackets 	1
scalar MyScenario.node[68].nic.mac1609_4 	SNIRLostPackets 	8
scalar MyScenario.node[68].nic.mac1609_4 	RXTXLostPackets 	4
scalar MyScenario.node[68].nic.mac1609_4 	TotalLostPackets 	12
scalar MyScenario.node[68].nic.mac1609_4 	DroppedPacketsInMac 	0
scalar MyScenario.node[68].nic.mac1609_4 	TooLittleTime 	0
scalar MyScenario.node[68].nic.mac1609_4 	TimesIntoBackoff 	1
scalar MyScenario.node[68].nic.mac1609_4 	SlotsBackoff 	3
scalar MyScenario.node[68].nic.mac1609_4 	NumInternalContention 	0
scalar MyScenario.node[68].nic.mac1609_4 	totalBusyTime 	0.001625
scalar MyScenario.node[68].veinsmobility 	startTime 	1
scalar MyScenario.node[68].veinsmobility 	totalTime 	34
scalar MyScenario.node[68].veinsmobility 	stopTime 	36
scalar MyScenario.node[68].veinsmobility 	minSpeed 	1.4578731924295
scalar MyScenario.node[68].veinsmobility 	maxSpeed 	13.810341047752
scalar MyScenario.node[68].veinsmobility 	totalDistance 	367.63885958611
scalar MyScenario.node[68].veinsmobility 	totalCO2Emission 	119.45792226145
scalar MyScenario.node[17].appl 	generatedWSMs 	0
scalar MyScenario.node[17].appl 	receivedWSMs 	0
scalar MyScenario.node[17].appl 	generatedBSMs 	0
scalar MyScenario.node[17].appl 	receivedBSMs 	0
scalar MyScenario.node[17].appl 	generatedWSAs 	0
scalar MyScenario.node[17].appl 	receivedWSAs 	0
scalar MyScenario.node[17].nic.phy80211p 	busyTime 	3.2222222222222e-05
scalar MyScenario.node[17].nic.mac1609_4 	ReceivedUnicastPackets 	0
scalar MyScenario.node[17].nic.mac1609_4 	ReceivedBroadcasts 	0
scalar MyScenario.node[17].nic.mac1609_4 	SentPackets 	0
scalar MyScenario.node[17].nic.mac1609_4 	SNIRLostPackets 	5
scalar MyScenario.node[17].nic.mac1609_4 	RXTXLostPackets 	0
scalar MyScenario.node[17].nic.mac1609_4 	TotalLostPackets 	5
scalar MyScenario.node[17].nic.mac1609_4 	DroppedPacketsInMac 	0
scalar MyScenario.node[17].nic.mac1609_4 	TooLittleTime 	0
scalar MyScenario.node[17].nic.mac1609_4 	TimesIntoBackoff 	0
scalar MyScenario.node[17].nic.mac1609_4 	SlotsBackoff 	0
scalar MyScenario.node[17].nic.mac1609_4 	NumInternalContention 	0
scalar MyScenario.node[17].nic.mac1609_4 	totalBusyTime 	0.000232
scalar MyScenario.node[17].veinsmobility 	startTime 	1
scalar MyScenario.node[17].veinsmobility 	totalTime 	35
scalar MyScenario.node[17].veinsmobility 	stopTime 	37
scalar MyScenario.node[17].veinsmobility 	minSpeed 	1.9569491316332
scalar MyScenario.node[17].veinsmobility 	maxSpeed 	13.888538056682
scalar MyScenario.node[17].veinsmobility 	totalDistance 	386.44097509335
scalar MyScenario.node[17].veinsmobility 	totalCO2Emission 	123.57225400063
scalar MyScenario.node[55].appl 	generatedWSMs 	1
scalar MyScenario.node[55].appl 	receivedWSMs 	8
scalar MyScenario.node[55].appl 	generatedBSMs 	0
scalar MyScenario.node[55].appl 	receivedBSMs 	0
scalar MyScenario.node[55].appl 	generatedWSAs 	0
scalar MyScenario.node[55].appl 	receivedWSAs 	0
scalar MyScenario.node[55].nic.phy80211p 	busyTime 	0.00012244444444444
scalar MyScenario.node[55].nic.mac1609_4 	ReceivedUnicastPackets 	0
scalar MyScenario.node[55].nic.mac1609_4 	ReceivedBroadcasts 	8
scalar MyScenario.node[55].nic.mac1609_4 	SentPackets 	1
scalar MyScenario.node[55].nic.mac1609_4 	SNIRLostPackets 	11
scalar MyScenario.node[55].nic.mac1609_4 	RXTXLostPackets 	5
scalar MyScenario.node[55].nic.mac1609_4 	TotalLostPackets 	16
scalar MyScenario.node[55].nic.mac1609_4 	DroppedPacketsInMac 	0
scalar MyScenario.node[55].nic.mac1609_4 	TooLittleTime 	0
scalar MyScenario.node[55].nic.mac1609_4 	TimesIntoBackoff 	1
scalar MyScenario.node[55].nic.mac1609_4 	SlotsBackoff 	0
scalar MyScenario.node[55].nic.mac1609_4 	NumInternalContention 	0
scalar MyScenario.node[55].nic.mac1609_4 	totalBusyTime 	0.002785
scalar MyScenario.node[55].veinsmobility 	startTime 	1
scalar MyScenario.node[55].veinsmobility 	totalTime 	35
scalar MyScenario.node[55].veinsmobility 	stopTime 	37
scalar MyScenario.node[55].veinsmobility 	minSpeed 	1.341724698199
scalar MyScenario.node[55].veinsmobility 	maxSpeed 	13.831567720766
scalar MyScenario.node[55].veinsmobility 	totalDistance 	381.42241212146
scalar MyScenario.node[55].veinsmobility 	totalCO2Emission 	119.70707303804
scalar MyScenario.node[0].appl 	generatedWSMs 	14
scalar MyScenario.node[0].appl 	receivedWSMs 	3
scalar MyScenario.node[0].appl 	generatedBSMs 	0
scalar MyScenario.node[0].appl 	receivedBSMs 	0
scalar MyScenario.node[0].appl 	generatedWSAs 	0
scalar MyScenario.node[0].appl 	receivedWSAs 	0
scalar MyScenario.node[0].nic.phy80211p 	busyTime 	0.0001566
scalar MyScenario.node[0].nic.mac1609_4 	ReceivedUnicastPackets 	0
scalar MyScenario.node[0].nic.mac1609_4 	ReceivedBroadcasts 	3
scalar MyScenario.node[0].nic.mac1609_4 	SentPackets 	14
scalar MyScenario.node[0].nic.mac1609_4 	SNIRLostPackets 	24
scalar MyScenario.node[0].nic.mac1609_4 	RXTXLostPackets 	0
scalar MyScenario.node[0].nic.mac1609_4 	TotalLostPackets 	24
scalar MyScenario.node[0].nic.mac1609_4 	DroppedPacketsInMac 	0
scalar MyScenario.node[0].nic.mac1609_4 	TooLittleTime 	0
scalar MyScenario.node[0].nic.mac1609_4 	TimesIntoBackoff 	14
scalar MyScenario.node[0].nic.mac1609_4 	SlotsBackoff 	24
scalar MyScenario.node[0].nic.mac1609_4 	NumInternalContention 	0
scalar MyScenario.node[0].nic.mac1609_4 	totalBusyTime 	0.005118
scalar MyScenario.node[0].veinsmobility 	startTime 	1
scalar MyScenario.node[0].veinsmobility 	totalTime 	39
scalar MyScenario.node[0].veinsmobility 	stopTime 	41
scalar MyScenario.node[0].veinsmobility 	minSpeed 	1.6868443575455
scalar MyScenario.node[0].veinsmobility 	maxSpeed 	13.897459017602
scalar MyScenario.node[0].veinsmobility 	totalDistance 	457.72774855059
scalar MyScenario.node[0].veinsmobility 	totalCO2Emission 	120.93879154038
scalar MyScenario.node[4].appl 	generatedWSMs 	0
scalar MyScenario.node[4].appl 	receivedWSMs 	0
scalar MyScenario.node[4].appl 	generatedBSMs 	0
scalar MyScenario.node[4].appl 	receivedBSMs 	0
scalar MyScenario.node[4].appl 	generatedWSAs 	0
scalar MyScenario.node[4].appl 	receivedWSAs 	0
scalar MyScenario.node[4].nic.phy80211p 	busyTime 	5.2727272727273e-06
scalar MyScenario.node[4].nic.mac1609_4 	ReceivedUnicastPackets 	0
scalar MyScenario.node[4].nic.mac1609_4 	ReceivedBroadcasts 	0
scalar MyScenario.node[4].nic.mac1609_4 	SentPackets 	0
scalar MyScenario.node[4].nic.mac1609_4 	SNIRLostPackets 	1
scalar MyScenario.node[4].nic.mac1609_4 	RXTXLostPackets 	0
scalar MyScenario.node[4].nic.mac1609_4 	TotalLostPackets 	1
scalar MyScenario.node[4].nic.mac1609_4 	DroppedPacketsInMac 	0
scalar MyScenario.node[4].nic.mac1609_4 	TooLittleTime 	0
scalar MyScenario.node[4].nic.mac1609_4 	TimesIntoBackoff 	0
scalar MyScenario.node[4].nic.mac1609_4 	SlotsBackoff 	0
scalar MyScenario.node[4].nic.mac1609_4 	NumInternalContention 	0
scalar MyScenario.node[4].nic.mac1609_4 	totalBusyTime 	0.000232
scalar MyScenario.node[4].veinsmobility 	startTime 	1
scalar MyScenario.node[4].veinsmobility 	totalTime 	43
scalar MyScenario.node[4].veinsmobility 	stopTime 	45
scalar MyScenario.node[4].veinsmobility 	minSpeed 	2.2774684745353
scalar MyScenario.node[4].veinsmobility 	maxSpeed 	13.869419200346
scalar MyScenario.node[4].veinsmobility 	totalDistance 	466.8674561042
scalar MyScenario.node[4].veinsmobility 	totalCO2Emission 	157.81431496239
scalar MyScenario.node[11].appl 	generatedWSMs 	1
scalar MyScenario.node[11].appl 	receivedWSMs 	10
scalar MyScenario.node[11].appl 	generatedBSMs 	0
scalar MyScenario.node[11].appl 	receivedBSMs 	0
scalar MyScenario.node[11].appl 	generatedWSAs 	0
scalar MyScenario.node[11].appl 	receivedWSAs 	0
scalar MyScenario.node[11].nic.phy80211p 	busyTime 	0.00011095652173913
scalar MyScenario.node[11].nic.mac1609_4 	ReceivedUnicastPackets 	0
scalar MyScenario.node[11].nic.mac1609_4 	ReceivedBroadcasts 	10
scalar MyScenario.node[11].nic.mac1609_4 	SentPackets 	1
scalar MyScenario.node[11].nic.mac1609_4 	SNIRLostPackets 	12
scalar MyScenario.node[11].nic.mac1609_4 	RXTXLostPackets 	4
scalar MyScenario.node[11].nic.mac1609_4 	TotalLostPackets 	16
scalar MyScenario.node[11].nic.mac1609_4 	DroppedPacketsInMac 	0
scalar MyScenario.node[11].nic.mac1609_4 	TooLittleTime 	0
scalar MyScenario.node[11].nic.mac1609_4 	TimesIntoBackoff 	1
scalar MyScenario.node[11].nic.mac1609_4 	SlotsBackoff 	1
scalar MyScenario.node[11].nic.mac1609_4 	NumInternalContention 	0
scalar MyScenario.node[11].nic.mac1609_4 	totalBusyTime 	0.003481
scalar MyScenario.node[11].veinsmobility 	startTime 	1
scalar MyScenario.node[11].veinsmobility 	totalTime 	45
scalar MyScenario.node[11].veinsmobility 	stopTime 	47
scalar MyScenario.node[11].veinsmobility 	minSpeed 	0.65364195211856
scalar MyScenario.node[11].veinsmobility 	maxSpeed 	13.879092857009
scalar MyScenario.node[11].veinsmobility 	totalDistance 	478.21486260415
scalar MyScenario.node[11].veinsmobility 	totalCO2Emission 	149.57552141085
scalar MyScenario.node[62].appl 	generatedWSMs 	0
scalar MyScenario.node[62].appl 	receivedWSMs 	0
scalar MyScenario.node[62].appl 	generatedBSMs 	0
scalar MyScenario.node[62].appl 	receivedBSMs 	0
scalar MyScenario.node[62].appl 	generatedWSAs 	0
scalar MyScenario.node[62].appl 	receivedWSAs 	0
scalar MyScenario.node[62].nic.phy80211p 	busyTime 	0
scalar MyScenario.node[62].nic.mac1609_4 	ReceivedUnicastPackets 	0
scalar MyScenario.node[62].nic.mac1609_4 	ReceivedBroadcasts 	0
scalar MyScenario.node[62].nic.mac1609_4 	SentPackets 	0
scalar MyScenario.node[62].nic.mac1609_4 	SNIRLostPackets 	0
scalar MyScenario.node[62].nic.mac1609_4 	RXTXLostPackets 	0
scalar MyScenario.node[62].nic.mac1609_4 	TotalLostPackets 	0
scalar MyScenario.node[62].nic.mac1609_4 	DroppedPacketsInMac 	0
scalar MyScenario.node[62].nic.mac1609_4 	TooLittleTime 	0
scalar MyScenario.node[62].nic.mac1609_4 	TimesIntoBackoff 	0
scalar MyScenario.node[62].nic.mac1609_4 	SlotsBackoff 	0
scalar MyScenario.node[62].nic.mac1609_4 	NumInternalContention 	0
scalar MyScenario.node[62].nic.mac1609_4 	totalBusyTime 	0
scalar MyScenario.node[62].veinsmobility 	startTime 	1
scalar MyScenario.node[62].veinsmobility 	totalTime 	47
scalar MyScenario.node[62].veinsmobility 	stopTime 	49
scalar MyScenario.node[62].veinsmobility 	minSpeed 	2.3587958071148
scalar MyScenario.node[62].veinsmobility 	maxSpeed 	13.843488799431
scalar MyScenario.node[62].veinsmobility 	totalDistance 	585.26961918951
scalar MyScenario.node[62].veinsmobility 	totalCO2Emission 	124.4809666262
scalar MyScenario.node[74].appl 	generatedWSMs 	0
scalar MyScenario.node[74].appl 	receivedWSMs 	0
scalar MyScenario.node[74].appl 	generatedBSMs 	0
scalar MyScenario.node[74].appl 	receivedBSMs 	0
scalar MyScenario.node[74].appl 	generatedWSAs 	0
scalar MyScenario.node[74].appl 	receivedWSAs 	0
scalar MyScenario.node[74].nic.phy80211p 	busyTime 	1.8938775510204e-05
scalar MyScenario.node[74].nic.mac1609_4 	ReceivedUnicastPackets 	0
scalar MyScenario.node[74].nic.mac1609_4 	ReceivedBroadcasts 	0
scalar MyScenario.node[74].nic.mac1609_4 	SentPackets 	0
scalar MyScenario.node[74].nic.mac1609_4 	SNIRLostPackets 	4
scalar MyScenario.node[74].nic.mac1609_4 	RXTXLostPackets 	0
scalar MyScenario.node[74].nic.mac1609_4 	TotalLostPackets 	4
scalar MyScenario.node[74].nic.mac1609_4 	DroppedPacketsInMac 	0
scalar MyScenario.node[74].nic.mac1609_4 	TooLittleTime 	0
scalar MyScenario.node[74].nic.mac1609_4 	TimesIntoBackoff 	0
scalar MyScenario.node[74].nic.mac1609_4 	SlotsBackoff 	0
scalar MyScenario.node[74].nic.mac1609_4 	NumInternalContention 	0
scalar MyScenario.node[74].nic.mac1609_4 	totalBusyTime 	0.000232
scalar MyScenario.node[74].veinsmobility 	startTime 	1
scalar MyScenario.node[74].veinsmobility 	totalTime 	48
scalar MyScenario.node[74].veinsmobility 	stopTime 	50
scalar MyScenario.node[74].veinsmobility 	minSpeed 	1.865669381828
scalar MyScenario.node[74].veinsmobility 	maxSpeed 	13.867371540074
scalar MyScenario.node[74].veinsmobility 	totalDistance 	564.16868523553
scalar MyScenario.node[74].veinsmobility 	totalCO2Emission 	149.95739812374
scalar MyScenario.node[19].appl 	generatedWSMs 	1
scalar MyScenario.node[19].appl 	receivedWSMs 	1
scalar MyScenario.node[19].appl 	generatedBSMs 	0
scalar MyScenario.node[19].appl 	receivedBSMs 	0
scalar MyScenario.node[19].appl 	generatedWSAs 	0
scalar MyScenario.node[19].appl 	receivedWSAs 	0
scalar MyScenario.node[19].nic.phy80211p 	busyTime 	4.64e-06
scalar MyScenario.node[19].nic.mac1609_4 	ReceivedUnicastPackets 	0
scalar MyScenario.node[19].nic.mac1609_4 	ReceivedBroadcasts 	1
scalar MyScenario.node[19].nic.mac1609_4 	SentPackets 	1
scalar MyScenario.node[19].nic.mac1609_4 	SNIRLostPackets 	0
scalar MyScenario.node[19].nic.mac1609_4 	RXTXLostPackets 	4
scalar MyScenario.node[19].nic.mac1609_4 	TotalLostPackets 	4
scalar MyScenario.node[19].nic.mac1609_4 	DroppedPacketsInMac 	0
scalar MyScenario.node[19].nic.mac1609_4 	TooLittleTime 	0
scalar MyScenario.node[19].nic.mac1609_4 	TimesIntoBackoff 	1
scalar MyScenario.node[19].nic.mac1609_4 	SlotsBackoff 	1
scalar MyScenario.node[19].nic.mac1609_4 	NumInternalContention 	0
scalar MyScenario.node[19].nic.mac1609_4 	totalBusyTime 	0.000465
scalar MyScenario.node[19].veinsmobility 	startTime 	1
scalar MyScenario.node[19].veinsmobility 	totalTime 	49
scalar MyScenario.node[19].veinsmobility 	stopTime 	51
scalar MyScenario.node[19].veinsmobility 	minSpeed 	1.9475630259607
scalar MyScenario.node[19].veinsmobility 	maxSpeed 	13.875638205558
scalar MyScenario.node[19].veinsmobility 	totalDistance 	565.59237054907
scalar MyScenario.node[19].veinsmobility 	totalCO2Emission 	156.94746544973
scalar MyScenario.node[83].appl 	generatedWSMs 	0
scalar MyScenario.node[83].appl 	receivedWSMs 	0
scalar MyScenario.node[83].appl 	generatedBSMs 	0
scalar MyScenario.node[83].appl 	receivedBSMs 	0
scalar MyScenario.node[83].appl 	generatedWSAs 	0
scalar MyScenario.node[83].appl 	receivedWSAs 	0
scalar MyScenario.node[83].nic.phy80211p 	busyTime 	0
scalar MyScenario.node[83].nic.mac1609_4 	ReceivedUnicastPackets 	0
scalar MyScenario.node[83].nic.mac1609_4 	ReceivedBroadcasts 	0
scalar MyScenario.node[83].nic.mac1609_4 	SentPackets 	0
scalar MyScenario.node[83].nic.mac1609_4 	SNIRLostPackets 	0
scalar MyScenario.node[83].nic.mac1609_4 	RXTXLostPackets 	0
scalar MyScenario.node[83].nic.mac1609_4 	TotalLostPackets 	0
scalar MyScenario.node[83].nic.mac1609_4 	DroppedPacketsInMac 	0
scalar MyScenario.node[83].nic.mac1609_4 	TooLittleTime 	0
scalar MyScenario.node[83].nic.mac1609_4 	TimesIntoBackoff 	0
scalar MyScenario.node[83].nic.mac1609_4 	SlotsBackoff 	0
scalar MyScenario.node[83].nic.mac1609_4 	NumInternalContention 	0
scalar MyScenario.node[83].nic.mac1609_4 	totalBusyTime 	0
scalar MyScenario.node[83].veinsmobility 	startTime 	1
scalar MyScenario.node[83].veinsmobility 	totalTime 	50
scalar MyScenario.node[83].veinsmobility 	stopTime 	52
scalar MyScenario.node[83].veinsmobility 	minSpeed 	1.843723193137
scalar MyScenario.node[83].veinsmobility 	maxSpeed 	13.893266707542
scalar MyScenario.node[83].veinsmobility 	totalDistance 	560.84831438758
scalar MyScenario.node[83].veinsmobility 	totalCO2Emission 	161.87307435444
scalar MyScenario.node[2].appl 	generatedWSMs 	1
scalar MyScenario.node[2].appl 	receivedWSMs 	3
scalar MyScenario.node[2].appl 	generatedBSMs 	0
scalar MyScenario.node[2].appl 	receivedBSMs 	0
scalar MyScenario.node[2].appl 	generatedWSAs 	0
scalar MyScenario.node[2].appl 	receivedWSAs 	0
scalar MyScenario.node[2].nic.phy80211p 	busyTime 	7.278431372549e-05
scalar MyScenario.node[2].nic.mac1609_4 	ReceivedUnicastPackets 	0
scalar MyScenario.node[2].nic.mac1609_4 	ReceivedBroadcasts 	3
scalar MyScenario.node[2].nic.mac1609_4 	SentPackets 	1
scalar MyScenario.node[2].nic.mac1609_4 	SNIRLostPackets 	13
scalar MyScenario.node[2].nic.mac1609_4 	RXTXLostPackets 	2
scalar MyScenario.node[2].nic.mac1609_4 	TotalLostPackets 	15
scalar MyScenario.node[2].nic.mac1609_4 	DroppedPacketsInMac 	0
scalar MyScenario.node[2].nic.mac1609_4 	TooLittleTime 	0
scalar MyScenario.node[2].nic.mac1609_4 	TimesIntoBackoff 	1
scalar MyScenario.node[2].nic.mac1609_4 	SlotsBackoff 	2
scalar MyScenario.node[2].nic.mac1609_4 	NumInternalContention 	0
scalar MyScenario.node[2].nic.mac1609_4 	totalBusyTime 	0.001857134511
scalar MyScenario.node[2].veinsmobility 	startTime 	1
scalar MyScenario.node[2].veinsmobility 	totalTime 	50
scalar MyScenario.node[2].veinsmobility 	stopTime 	52
scalar MyScenario.node[2].veinsmobility 	minSpeed 	1.5154154164717
scalar MyScenario.node[2].veinsmobility 	maxSpeed 	13.875680496893
scalar MyScenario.node[2].veinsmobility 	totalDistance 	580.38367330467
scalar MyScenario.node[2].veinsmobility 	totalCO2Emission 	162.19426194857
scalar MyScenario.node[16].appl 	generatedWSMs 	1
scalar MyScenario.node[16].appl 	receivedWSMs 	6
scalar MyScenario.node[16].appl 	generatedBSMs 	0
scalar MyScenario.node[16].appl 	receivedBSMs 	0
scalar MyScenario.node[16].appl 	generatedWSAs 	0
scalar MyScenario.node[16].appl 	receivedWSAs 	0
scalar MyScenario.node[16].nic.phy80211p 	busyTime 	9.3692307692308e-05
scalar MyScenario.node[16].nic.mac1609_4 	ReceivedUnicastPackets 	0
scalar MyScenario.node[16].nic.mac1609_4 	ReceivedBroadcasts 	6
scalar MyScenario.node[16].nic.mac1609_4 	SentPackets 	1
scalar MyScenario.node[16].nic.mac1609_4 	SNIRLostPackets 	15
scalar MyScenario.node[16].nic.mac1609_4 	RXTXLostPackets 	9
scalar MyScenario.node[16].nic.mac1609_4 	TotalLostPackets 	24
scalar MyScenario.node[16].nic.mac1609_4 	DroppedPacketsInMac 	0
scalar MyScenario.node[16].nic.mac1609_4 	TooLittleTime 	0
scalar MyScenario.node[16].nic.mac1609_4 	TimesIntoBackoff 	1
scalar MyScenario.node[16].nic.mac1609_4 	SlotsBackoff 	1
scalar MyScenario.node[16].nic.mac1609_4 	NumInternalContention 	0
scalar MyScenario.node[16].nic.mac1609_4 	totalBusyTime 	0.002785093637
scalar MyScenario.node[16].veinsmobility 	startTime 	1
scalar MyScenario.node[16].veinsmobility 	totalTime 	51
scalar MyScenario.node[16].veinsmobility 	stopTime 	53
scalar MyScenario.node[16].veinsmobility 	minSpeed 	2.1122278542025
scalar MyScenario.node[16].veinsmobility 	maxSpeed 	13.889071188471
scalar MyScenario.node[16].veinsmobility 	totalDistance 	558.62574540542
scalar MyScenario.node[16].veinsmobility 	totalCO2Emission 	175.24842486992
scalar MyScenario.node[36].appl 	generatedWSMs 	1
scalar MyScenario.node[36].appl 	receivedWSMs 	11
scalar MyScenario.node[36].appl 	generatedBSMs 	0
scalar MyScenario.node[36].appl 	receivedBSMs 	0
scalar MyScenario.node[36].appl 	generatedWSAs 	0
scalar MyScenario.node[36].appl 	receivedWSAs 	0
scalar MyScenario.node[36].nic.phy80211p 	busyTime 	7.0037735849057e-05
scalar MyScenario.node[36].nic.mac1609_4 	ReceivedUnicastPackets 	0
scalar MyScenario.node[36].nic.mac1609_4 	ReceivedBroadcasts 	11
scalar MyScenario.node[36].nic.mac1609_4 	SentPackets 	1
scalar MyScenario.node[36].nic.mac1609_4 	SNIRLostPackets 	5
scalar MyScenario.node[36].nic.mac1609_4 	RXTXLostPackets 	5
scalar MyScenario.node[36].nic.mac1609_4 	TotalLostPackets 	10
scalar MyScenario.node[36].nic.mac1609_4 	DroppedPacketsInMac 	0
scalar MyScenario.node[36].nic.mac1609_4 	TooLittleTime 	0
scalar MyScenario.node[36].nic.mac1609_4 	TimesIntoBackoff 	1
scalar MyScenario.node[36].nic.mac1609_4 	SlotsBackoff 	1
scalar MyScenario.node[36].nic.mac1609_4 	NumInternalContention 	0
scalar MyScenario.node[36].nic.mac1609_4 	totalBusyTime 	0.003249
scalar MyScenario.node[36].veinsmobility 	startTime 	1
scalar MyScenario.node[36].veinsmobility 	totalTime 	52
scalar MyScenario.node[36].veinsmobility 	stopTime 	54
scalar MyScenario.node[36].veinsmobility 	minSpeed 	1.11627484672e-06
scalar MyScenario.node[36].veinsmobility 	maxSpeed 	13.852673311252
scalar MyScenario.node[36].veinsmobility 	totalDistance 	476.16571601818
scalar MyScenario.node[36].veinsmobility 	totalCO2Emission 	149.83737916728
scalar MyScenario.node[71].appl 	generatedWSMs 	1
scalar MyScenario.node[71].appl 	receivedWSMs 	1
scalar MyScenario.node[71].appl 	generatedBSMs 	0
scalar MyScenario.node[71].appl 	receivedBSMs 	0
scalar MyScenario.node[71].appl 	generatedWSAs 	0
scalar MyScenario.node[71].appl 	receivedWSAs 	0
scalar MyScenario.node[71].nic.phy80211p 	busyTime 	1.7509433962264e-05
scalar MyScenario.node[71].nic.mac1609_4 	ReceivedUnicastPackets 	0
scalar MyScenario.node[71].nic.mac1609_4 	ReceivedBroadcasts 	1
scalar MyScenario.node[71].nic.mac1609_4 	SentPackets 	1
scalar MyScenario.node[71].nic.mac1609_4 	SNIRLostPackets 	3
scalar MyScenario.node[71].nic.mac1609_4 	RXTXLostPackets 	3
scalar MyScenario.node[71].nic.mac1609_4 	TotalLostPackets 	6
scalar MyScenario.node[71].nic.mac1609_4 	DroppedPacketsInMac 	0
scalar MyScenario.node[71].nic.mac1609_4 	TooLittleTime 	0
scalar MyScenario.node[71].nic.mac1609_4 	TimesIntoBackoff 	1
scalar MyScenario.node[71].nic.mac1609_4 	SlotsBackoff 	0
scalar MyScenario.node[71].nic.mac1609_4 	NumInternalContention 	0
scalar MyScenario.node[71].nic.mac1609_4 	totalBusyTime 	0.000697
scalar MyScenario.node[71].veinsmobility 	startTime 	1
scalar MyScenario.node[71].veinsmobility 	totalTime 	52
scalar MyScenario.node[71].veinsmobility 	stopTime 	54
scalar MyScenario.node[71].veinsmobility 	minSpeed 	1.7685612914385
scalar MyScenario.node[71].veinsmobility 	maxSpeed 	13.875596188451
scalar MyScenario.node[71].veinsmobility 	totalDistance 	574.0590065678
scalar MyScenario.node[71].veinsmobility 	totalCO2Emission 	189.0067226698
scalar MyScenario.node[13].appl 	generatedWSMs 	0
scalar MyScenario.node[13].appl 	receivedWSMs 	0
scalar MyScenario.node[13].appl 	generatedBSMs 	0
scalar MyScenario.node[13].appl 	receivedBSMs 	0
scalar MyScenario.node[13].appl 	generatedWSAs 	0
scalar MyScenario.node[13].appl 	receivedWSAs 	0
scalar MyScenario.node[13].nic.phy80211p 	busyTime 	2.188679245283e-05
scalar MyScenario.node[13].nic.mac1609_4 	ReceivedUnicastPackets 	0
scalar MyScenario.node[13].nic.mac1609_4 	ReceivedBroadcasts 	0
scalar MyScenario.node[13].nic.mac1609_4 	SentPackets 	0
scalar MyScenario.node[13].nic.mac1609_4 	SNIRLostPackets 	5
scalar MyScenario.node[13].nic.mac1609_4 	RXTXLostPackets 	0
scalar MyScenario.node[13].nic.mac1609_4 	TotalLostPackets 	5
scalar MyScenario.node[13].nic.mac1609_4 	DroppedPacketsInMac 	0
scalar MyScenario.node[13].nic.mac1609_4 	TooLittleTime 	0
scalar MyScenario.node[13].nic.mac1609_4 	TimesIntoBackoff 	0
scalar MyScenario.node[13].nic.mac1609_4 	SlotsBackoff 	0
scalar MyScenario.node[13].nic.mac1609_4 	NumInternalContention 	0
scalar MyScenario.node[13].nic.mac1609_4 	totalBusyTime 	0.000232
scalar MyScenario.node[13].veinsmobility 	startTime 	1
scalar MyScenario.node[13].veinsmobility 	totalTime 	52
scalar MyScenario.node[13].veinsmobility 	stopTime 	54
scalar MyScenario.node[13].veinsmobility 	minSpeed 	1.9511305246269
scalar MyScenario.node[13].veinsmobility 	maxSpeed 	13.839518784708
scalar MyScenario.node[13].veinsmobility 	totalDistance 	578.45748485612
scalar MyScenario.node[13].veinsmobility 	totalCO2Emission 	189.63584600123
scalar MyScenario.node[27].appl 	generatedWSMs 	1
scalar MyScenario.node[27].appl 	receivedWSMs 	7
scalar MyScenario.node[27].appl 	generatedBSMs 	0
scalar MyScenario.node[27].appl 	receivedBSMs 	0
scalar MyScenario.node[27].appl 	generatedWSAs 	0
scalar MyScenario.node[27].appl 	receivedWSAs 	0
scalar MyScenario.node[27].nic.phy80211p 	busyTime 	7.3037037037037e-05
scalar MyScenario.node[27].nic.mac1609_4 	ReceivedUnicastPackets 	0
scalar MyScenario.node[27].nic.mac1609_4 	ReceivedBroadcasts 	7
scalar MyScenario.node[27].nic.mac1609_4 	SentPackets 	1
scalar MyScenario.node[27].nic.mac1609_4 	SNIRLostPackets 	10
scalar MyScenario.node[27].nic.mac1609_4 	RXTXLostPackets 	0
scalar MyScenario.node[27].nic.mac1609_4 	TotalLostPackets 	10
scalar MyScenario.node[27].nic.mac1609_4 	DroppedPacketsInMac 	0
scalar MyScenario.node[27].nic.mac1609_4 	TooLittleTime 	0
scalar MyScenario.node[27].nic.mac1609_4 	TimesIntoBackoff 	1
scalar MyScenario.node[27].nic.mac1609_4 	SlotsBackoff 	0
scalar MyScenario.node[27].nic.mac1609_4 	NumInternalContention 	0
scalar MyScenario.node[27].nic.mac1609_4 	totalBusyTime 	0.002785
scalar MyScenario.node[27].veinsmobility 	startTime 	1
scalar MyScenario.node[27].veinsmobility 	totalTime 	53
scalar MyScenario.node[27].veinsmobility 	stopTime 	55
scalar MyScenario.node[27].veinsmobility 	minSpeed 	2.1889083944727
scalar MyScenario.node[27].veinsmobility 	maxSpeed 	13.891506211436
scalar MyScenario.node[27].veinsmobility 	totalDistance 	574.13325776709
scalar MyScenario.node[27].veinsmobility 	totalCO2Emission 	183.01550096471
scalar MyScenario.node[43].appl 	generatedWSMs 	0
scalar MyScenario.node[43].appl 	receivedWSMs 	0
scalar MyScenario.node[43].appl 	generatedBSMs 	0
scalar MyScenario.node[43].appl 	receivedBSMs 	0
scalar MyScenario.node[43].appl 	generatedWSAs 	0
scalar MyScenario.node[43].appl 	receivedWSAs 	0
scalar MyScenario.node[43].nic.phy80211p 	busyTime 	1.2654545454545e-05
scalar MyScenario.node[43].nic.mac1609_4 	ReceivedUnicastPackets 	0
scalar MyScenario.node[43].nic.mac1609_4 	ReceivedBroadcasts 	0
scalar MyScenario.node[43].nic.mac1609_4 	SentPackets 	0
scalar MyScenario.node[43].nic.mac1609_4 	SNIRLostPackets 	3
scalar MyScenario.node[43].nic.mac1609_4 	RXTXLostPackets 	0
scalar MyScenario.node[43].nic.mac1609_4 	TotalLostPackets 	3
scalar MyScenario.node[43].nic.mac1609_4 	DroppedPacketsInMac 	0
scalar MyScenario.node[43].nic.mac1609_4 	TooLittleTime 	0
scalar MyScenario.node[43].nic.mac1609_4 	TimesIntoBackoff 	0
scalar MyScenario.node[43].nic.mac1609_4 	SlotsBackoff 	0
scalar MyScenario.node[43].nic.mac1609_4 	NumInternalContention 	0
scalar MyScenario.node[43].nic.mac1609_4 	totalBusyTime 	0.000232
scalar MyScenario.node[43].veinsmobility 	startTime 	1
scalar MyScenario.node[43].veinsmobility 	totalTime 	54
scalar MyScenario.node[43].veinsmobility 	stopTime 	56
scalar MyScenario.node[43].veinsmobility 	minSpeed 	0.012830365585975
scalar MyScenario.node[43].veinsmobility 	maxSpeed 	13.78528176304
scalar MyScenario.node[43].veinsmobility 	totalDistance 	475.43262178552
scalar MyScenario.node[43].veinsmobility 	totalCO2Emission 	181.5545893263
scalar MyScenario.node[12].appl 	generatedWSMs 	0
scalar MyScenario.node[12].appl 	receivedWSMs 	0
scalar MyScenario.node[12].appl 	generatedBSMs 	0
scalar MyScenario.node[12].appl 	receivedBSMs 	0
scalar MyScenario.node[12].appl 	generatedWSAs 	0
scalar MyScenario.node[12].appl 	receivedWSAs 	0
scalar MyScenario.node[12].nic.phy80211p 	busyTime 	0
scalar MyScenario.node[12].nic.mac1609_4 	ReceivedUnicastPackets 	0
scalar MyScenario.node[12].nic.mac1609_4 	ReceivedBroadcasts 	0
scalar MyScenario.node[12].nic.mac1609_4 	SentPackets 	0
scalar MyScenario.node[12].nic.mac1609_4 	SNIRLostPackets 	0
scalar MyScenario.node[12].nic.mac1609_4 	RXTXLostPackets 	0
scalar MyScenario.node[12].nic.mac1609_4 	TotalLostPackets 	0
scalar MyScenario.node[12].nic.mac1609_4 	DroppedPacketsInMac 	0
scalar MyScenario.node[12].nic.mac1609_4 	TooLittleTime 	0
scalar MyScenario.node[12].nic.mac1609_4 	TimesIntoBackoff 	0
scalar MyScenario.node[12].nic.mac1609_4 	SlotsBackoff 	0
scalar MyScenario.node[12].nic.mac1609_4 	NumInternalContention 	0
scalar MyScenario.node[12].nic.mac1609_4 	totalBusyTime 	0
scalar MyScenario.node[12].veinsmobility 	startTime 	1
scalar MyScenario.node[12].veinsmobility 	totalTime 	54
scalar MyScenario.node[12].veinsmobility 	stopTime 	56
scalar MyScenario.node[12].veinsmobility 	minSpeed 	2.5865135943983
scalar MyScenario.node[12].veinsmobility 	maxSpeed 	13.888759159762
scalar MyScenario.node[12].veinsmobility 	totalDistance 	675.12015663932
scalar MyScenario.node[12].veinsmobility 	totalCO2Emission 	146.73736476052
scalar MyScenario.node[49].appl 	generatedWSMs 	1
scalar MyScenario.node[49].appl 	receivedWSMs 	7
scalar MyScenario.node[49].appl 	generatedBSMs 	0
scalar MyScenario.node[49].appl 	receivedBSMs 	0
scalar MyScenario.node[49].appl 	generatedWSAs 	0
scalar MyScenario.node[49].appl 	receivedWSAs 	0
scalar MyScenario.node[49].nic.phy80211p 	busyTime 	7.4571428571429e-05
scalar MyScenario.node[49].nic.mac1609_4 	ReceivedUnicastPackets 	0
scalar MyScenario.node[49].nic.mac1609_4 	ReceivedBroadcasts 	7
scalar MyScenario.node[49].nic.mac1609_4 	SentPackets 	1
scalar MyScenario.node[49].nic.mac1609_4 	SNIRLostPackets 	11
scalar MyScenario.node[49].nic.mac1609_4 	RXTXLostPackets 	1
scalar MyScenario.node[49].nic.mac1609_4 	TotalLostPackets 	12
scalar MyScenario.node[49].nic.mac1609_4 	DroppedPacketsInMac 	0
scalar MyScenario.node[49].nic.mac1609_4 	TooLittleTime 	0
scalar MyScenario.node[49].nic.mac1609_4 	TimesIntoBackoff 	1
scalar MyScenario.node[49].nic.mac1609_4 	SlotsBackoff 	3
scalar MyScenario.node[49].nic.mac1609_4 	NumInternalContention 	0
scalar MyScenario.node[49].nic.mac1609_4 	totalBusyTime 	0.002785
scalar MyScenario.node[49].veinsmobility 	startTime 	1
scalar MyScenario.node[49].veinsmobility 	totalTime 	55
scalar MyScenario.node[49].veinsmobility 	stopTime 	57
scalar MyScenario.node[49].veinsmobility 	minSpeed 	1.3379001913592
scalar MyScenario.node[49].veinsmobility 	maxSpeed 	13.885054780194
scalar MyScenario.node[49].veinsmobility 	totalDistance 	677.27672514542
scalar MyScenario.node[49].veinsmobility 	totalCO2Emission 	147.16152433659
scalar MyScenario.node[5].appl 	generatedWSMs 	1
scalar MyScenario.node[5].appl 	receivedWSMs 	6
scalar MyScenario.node[5].appl 	generatedBSMs 	0
scalar MyScenario.node[5].appl 	receivedBSMs 	0
scalar MyScenario.node[5].appl 	generatedWSAs 	0
scalar MyScenario.node[5].appl 	receivedWSAs 	0
scalar MyScenario.node[5].nic.phy80211p 	busyTime 	4.4771929824561e-05
scalar MyScenario.node[5].nic.mac1609_4 	ReceivedUnicastPackets 	0
scalar MyScenario.node[5].nic.mac1609_4 	ReceivedBroadcasts 	6
scalar MyScenario.node[5].nic.mac1609_4 	SentPackets 	1
scalar MyScenario.node[5].nic.mac1609_4 	SNIRLostPackets 	5
scalar MyScenario.node[5].nic.mac1609_4 	RXTXLostPackets 	6
scalar MyScenario.node[5].nic.mac1609_4 	TotalLostPackets 	11
scalar MyScenario.node[5].nic.mac1609_4 	DroppedPacketsInMac 	0
scalar MyScenario.node[5].nic.mac1609_4 	TooLittleTime 	0
scalar MyScenario.node[5].nic.mac1609_4 	TimesIntoBackoff 	1
scalar MyScenario.node[5].nic.mac1609_4 	SlotsBackoff 	3
scalar MyScenario.node[5].nic.mac1609_4 	NumInternalContention 	0
scalar MyScenario.node[5].nic.mac1609_4 	totalBusyTime 	0.002089086003
scalar MyScenario.node[5].veinsmobility 	startTime 	1
scalar MyScenario.node[5].veinsmobility 	totalTime 	56
scalar MyScenario.node[5].veinsmobility 	stopTime 	58
scalar MyScenario.node[5].veinsmobility 	minSpeed 	1.7555973932613
scalar MyScenario.node[5].veinsmobility 	maxSpeed 	13.887303513405
scalar MyScenario.node[5].veinsmobility 	totalDistance 	674.01151727441
scalar MyScenario.node[5].veinsmobility 	totalCO2Emission 	164.1721343495
scalar MyScenario.node[79].appl 	generatedWSMs 	0
scalar MyScenario.node[79].appl 	receivedWSMs 	0
scalar MyScenario.node[79].appl 	generatedBSMs 	0
scalar MyScenario.node[79].appl 	receivedBSMs 	0
scalar MyScenario.node[79].appl 	generatedWSAs 	0
scalar MyScenario.node[79].appl 	receivedWSAs 	0
scalar MyScenario.node[79].nic.phy80211p 	busyTime 	0
scalar MyScenario.node[79].nic.mac1609_4 	ReceivedUnicastPackets 	0
scalar MyScenario.node[79].nic.mac1609_4 	ReceivedBroadcasts 	0
scalar MyScenario.node[79].nic.mac1609_4 	SentPackets 	0
scalar MyScenario.node[79].nic.mac1609_4 	SNIRLostPackets 	0
scalar MyScenario.node[79].nic.mac1609_4 	RXTXLostPackets 	0
scalar MyScenario.node[79].nic.mac1609_4 	TotalLostPackets 	0
scalar MyScenario.node[79].nic.mac1609_4 	DroppedPacketsInMac 	0
scalar MyScenario.node[79].nic.mac1609_4 	TooLittleTime 	0
scalar MyScenario.node[79].nic.mac1609_4 	TimesIntoBackoff 	0
scalar MyScenario.node[79].nic.mac1609_4 	SlotsBackoff 	0
scalar MyScenario.node[79].nic.mac1609_4 	NumInternalContention 	0
scalar MyScenario.node[79].nic.mac1609_4 	totalBusyTime 	0
scalar MyScenario.node[79].veinsmobility 	startTime 	1
scalar MyScenario.node[79].veinsmobility 	totalTime 	58
scalar MyScenario.node[79].veinsmobility 	stopTime 	60
scalar MyScenario.node[79].veinsmobility 	minSpeed 	1.697229722864
scalar MyScenario.node[79].veinsmobility 	maxSpeed 	13.843871341343
scalar MyScenario.node[79].veinsmobility 	totalDistance 	664.3223321384
scalar MyScenario.node[79].veinsmobility 	totalCO2Emission 	191.54293830568
scalar MyScenario.node[31].appl 	generatedWSMs 	1
scalar MyScenario.node[31].appl 	receivedWSMs 	9
scalar MyScenario.node[31].appl 	generatedBSMs 	0
scalar MyScenario.node[31].appl 	receivedBSMs 	0
scalar MyScenario.node[31].appl 	generatedWSAs 	0
scalar MyScenario.node[31].appl 	receivedWSAs 	0
scalar MyScenario.node[31].nic.phy80211p 	busyTime 	7.3466666666667e-05
scalar MyScenario.node[31].nic.mac1609_4 	ReceivedUnicastPackets 	0
scalar MyScenario.node[31].nic.mac1609_4 	ReceivedBroadcasts 	9
scalar MyScenario.node[31].nic.mac1609_4 	SentPackets 	1
scalar MyScenario.node[31].nic.mac1609_4 	SNIRLostPackets 	10
scalar MyScenario.node[31].nic.mac1609_4 	RXTXLostPackets 	9
scalar MyScenario.node[31].nic.mac1609_4 	TotalLostPackets 	19
scalar MyScenario.node[31].nic.mac1609_4 	DroppedPacketsInMac 	0
scalar MyScenario.node[31].nic.mac1609_4 	TooLittleTime 	0
scalar MyScenario.node[31].nic.mac1609_4 	TimesIntoBackoff 	1
scalar MyScenario.node[31].nic.mac1609_4 	SlotsBackoff 	1
scalar MyScenario.node[31].nic.mac1609_4 	NumInternalContention 	0
scalar MyScenario.node[31].nic.mac1609_4 	totalBusyTime 	0.003481000589
scalar MyScenario.node[31].veinsmobility 	startTime 	1
scalar MyScenario.node[31].veinsmobility 	totalTime 	59
scalar MyScenario.node[31].veinsmobility 	stopTime 	61
scalar MyScenario.node[31].veinsmobility 	minSpeed 	0.00082361699785097
scalar MyScenario.node[31].veinsmobility 	maxSpeed 	13.86057795349
scalar MyScenario.node[31].veinsmobility 	totalDistance 	570.5788609661
scalar MyScenario.node[31].veinsmobility 	totalCO2Emission 	195.95354203804
scalar MyScenario.node[77].appl 	generatedWSMs 	0
scalar MyScenario.node[77].appl 	receivedWSMs 	0
scalar MyScenario.node[77].appl 	generatedBSMs 	0
scalar MyScenario.node[77].appl 	receivedBSMs 	0
scalar MyScenario.node[77].appl 	generatedWSAs 	0
scalar MyScenario.node[77].appl 	receivedWSAs 	0
scalar MyScenario.node[77].nic.phy80211p 	busyTime 	0
scalar MyScenario.node[77].nic.mac1609_4 	ReceivedUnicastPackets 	0
scalar MyScenario.node[77].nic.mac1609_4 	ReceivedBroadcasts 	0
scalar MyScenario.node[77].nic.mac1609_4 	SentPackets 	0
scalar MyScenario.node[77].nic.mac1609_4 	SNIRLostPackets 	0
scalar MyScenario.node[77].nic.mac1609_4 	RXTXLostPackets 	0
scalar MyScenario.node[77].nic.mac1609_4 	TotalLostPackets 	0
scalar MyScenario.node[77].nic.mac1609_4 	DroppedPacketsInMac 	0
scalar MyScenario.node[77].nic.mac1609_4 	TooLittleTime 	0
scalar MyScenario.node[77].nic.mac1609_4 	TimesIntoBackoff 	0
scalar MyScenario.node[77].nic.mac1609_4 	SlotsBackoff 	0
scalar MyScenario.node[77].nic.mac1609_4 	NumInternalContention 	0
scalar MyScenario.node[77].nic.mac1609_4 	totalBusyTime 	0
scalar MyScenario.node[77].veinsmobility 	startTime 	1
scalar MyScenario.node[77].veinsmobility 	totalTime 	61
scalar MyScenario.node[77].veinsmobility 	stopTime 	63
scalar MyScenario.node[77].veinsmobility 	minSpeed 	1.6449445396895
scalar MyScenario.node[77].veinsmobility 	maxSpeed 	13.89246854051
scalar MyScenario.node[77].veinsmobility 	totalDistance 	666.00843430205
scalar MyScenario.node[77].veinsmobility 	totalCO2Emission 	211.36784360569
scalar MyScenario.node[6].appl 	generatedWSMs 	1
scalar MyScenario.node[6].appl 	receivedWSMs 	4
scalar MyScenario.node[6].appl 	generatedBSMs 	0
scalar MyScenario.node[6].appl 	receivedBSMs 	0
scalar MyScenario.node[6].appl 	generatedWSAs 	0
scalar MyScenario.node[6].appl 	receivedWSAs 	0
scalar MyScenario.node[6].nic.phy80211p 	busyTime 	3.741935483871e-05
scalar MyScenario.node[6].nic.mac1609_4 	ReceivedUnicastPackets 	0
scalar MyScenario.node[6].nic.mac1609_4 	ReceivedBroadcasts 	4
scalar MyScenario.node[6].nic.mac1609_4 	SentPackets 	1
scalar MyScenario.node[6].nic.mac1609_4 	SNIRLostPackets 	6
scalar MyScenario.node[6].nic.mac1609_4 	RXTXLostPackets 	0
scalar MyScenario.node[6].nic.mac1609_4 	TotalLostPackets 	6
scalar MyScenario.node[6].nic.mac1609_4 	DroppedPacketsInMac 	0
scalar MyScenario.node[6].nic.mac1609_4 	TooLittleTime 	0
scalar MyScenario.node[6].nic.mac1609_4 	TimesIntoBackoff 	1
scalar MyScenario.node[6].nic.mac1609_4 	SlotsBackoff 	2
scalar MyScenario.node[6].nic.mac1609_4 	NumInternalContention 	0
scalar MyScenario.node[6].nic.mac1609_4 	totalBusyTime 	0.001857
scalar MyScenario.node[6].veinsmobility 	startTime 	1
scalar MyScenario.node[6].veinsmobility 	totalTime 	61
scalar MyScenario.node[6].veinsmobility 	stopTime 	63
scalar MyScenario.node[6].veinsmobility 	minSpeed 	2.4231909269467
scalar MyScenario.node[6].veinsmobility 	maxSpeed 	13.883108716225
scalar MyScenario.node[6].veinsmobility 	totalDistance 	672.02337318641
scalar MyScenario.node[6].veinsmobility 	totalCO2Emission 	202.29236921016
scalar MyScenario.node[30].appl 	generatedWSMs 	1
scalar MyScenario.node[30].appl 	receivedWSMs 	9
scalar MyScenario.node[30].appl 	generatedBSMs 	0
scalar MyScenario.node[30].appl 	receivedBSMs 	0
scalar MyScenario.node[30].appl 	generatedWSAs 	0
scalar MyScenario.node[30].appl 	receivedWSAs 	0
scalar MyScenario.node[30].nic.phy80211p 	busyTime 	5.6129032258065e-05
scalar MyScenario.node[30].nic.mac1609_4 	ReceivedUnicastPackets 	0
scalar MyScenario.node[30].nic.mac1609_4 	ReceivedBroadcasts 	9
scalar MyScenario.node[30].nic.mac1609_4 	SentPackets 	1
scalar MyScenario.node[30].nic.mac1609_4 	SNIRLostPackets 	6
scalar MyScenario.node[30].nic.mac1609_4 	RXTXLostPackets 	7
scalar MyScenario.node[30].nic.mac1609_4 	TotalLostPackets 	13
scalar MyScenario.node[30].nic.mac1609_4 	DroppedPacketsInMac 	0
scalar MyScenario.node[30].nic.mac1609_4 	TooLittleTime 	0
scalar MyScenario.node[30].nic.mac1609_4 	TimesIntoBackoff 	1
scalar MyScenario.node[30].nic.mac1609_4 	SlotsBackoff 	3
scalar MyScenario.node[30].nic.mac1609_4 	NumInternalContention 	0
scalar MyScenario.node[30].nic.mac1609_4 	totalBusyTime 	0.003017
scalar MyScenario.node[30].veinsmobility 	startTime 	1
scalar MyScenario.node[30].veinsmobility 	totalTime 	61
scalar MyScenario.node[30].veinsmobility 	stopTime 	63
scalar MyScenario.node[30].veinsmobility 	minSpeed 	2.5496271135285
scalar MyScenario.node[30].veinsmobility 	maxSpeed 	13.731247576512
scalar MyScenario.node[30].veinsmobility 	totalDistance 	679.7091096664
scalar MyScenario.node[30].veinsmobility 	totalCO2Emission 	221.437338908
scalar MyScenario.node[87].appl 	generatedWSMs 	1
scalar MyScenario.node[87].appl 	receivedWSMs 	3
scalar MyScenario.node[87].appl 	generatedBSMs 	0
scalar MyScenario.node[87].appl 	receivedBSMs 	0
scalar MyScenario.node[87].appl 	generatedWSAs 	0
scalar MyScenario.node[87].appl 	receivedWSAs 	0
scalar MyScenario.node[87].nic.phy80211p 	busyTime 	1.5728813559322e-05
scalar MyScenario.node[87].nic.mac1609_4 	ReceivedUnicastPackets 	0
scalar MyScenario.node[87].nic.mac1609_4 	ReceivedBroadcasts 	3
scalar MyScenario.node[87].nic.mac1609_4 	SentPackets 	1
scalar MyScenario.node[87].nic.mac1609_4 	SNIRLostPackets 	1
scalar MyScenario.node[87].nic.mac1609_4 	RXTXLostPackets 	3
scalar MyScenario.node[87].nic.mac1609_4 	TotalLostPackets 	4
scalar MyScenario.node[87].nic.mac1609_4 	DroppedPacketsInMac 	0
scalar MyScenario.node[87].nic.mac1609_4 	TooLittleTime 	0
scalar MyScenario.node[87].nic.mac1609_4 	TimesIntoBackoff 	1
scalar MyScenario.node[87].nic.mac1609_4 	SlotsBackoff 	0
scalar MyScenario.node[87].nic.mac1609_4 	NumInternalContention 	0
scalar MyScenario.node[87].nic.mac1609_4 	totalBusyTime 	0.001161
scalar MyScenario.node[87].veinsmobility 	startTime 	4
scalar MyScenario.node[87].veinsmobility 	totalTime 	58
scalar MyScenario.node[87].veinsmobility 	stopTime 	63
scalar MyScenario.node[87].veinsmobility 	minSpeed 	1.9993864283664
scalar MyScenario.node[87].veinsmobility 	maxSpeed 	13.889350097347
scalar MyScenario.node[87].veinsmobility 	totalDistance 	683.75504162609
scalar MyScenario.node[87].veinsmobility 	totalCO2Emission 	176.86603642625
scalar MyScenario.node[24].appl 	generatedWSMs 	1
scalar MyScenario.node[24].appl 	receivedWSMs 	10
scalar MyScenario.node[24].appl 	generatedBSMs 	0
scalar MyScenario.node[24].appl 	receivedBSMs 	0
scalar MyScenario.node[24].appl 	generatedWSAs 	0
scalar MyScenario.node[24].appl 	receivedWSAs 	0
scalar MyScenario.node[24].nic.phy80211p 	busyTime 	4.7873015873016e-05
scalar MyScenario.node[24].nic.mac1609_4 	ReceivedUnicastPackets 	0
scalar MyScenario.node[24].nic.mac1609_4 	ReceivedBroadcasts 	10
scalar MyScenario.node[24].nic.mac1609_4 	SentPackets 	1
scalar MyScenario.node[24].nic.mac1609_4 	SNIRLostPackets 	3
scalar MyScenario.node[24].nic.mac1609_4 	RXTXLostPackets 	3
scalar MyScenario.node[24].nic.mac1609_4 	TotalLostPackets 	6
scalar MyScenario.node[24].nic.mac1609_4 	DroppedPacketsInMac 	0
scalar MyScenario.node[24].nic.mac1609_4 	TooLittleTime 	0
scalar MyScenario.node[24].nic.mac1609_4 	TimesIntoBackoff 	1
scalar MyScenario.node[24].nic.mac1609_4 	SlotsBackoff 	0
scalar MyScenario.node[24].nic.mac1609_4 	NumInternalContention 	0
scalar MyScenario.node[24].nic.mac1609_4 	totalBusyTime 	0.003017012997
scalar MyScenario.node[24].veinsmobility 	startTime 	1
scalar MyScenario.node[24].veinsmobility 	totalTime 	62
scalar MyScenario.node[24].veinsmobility 	stopTime 	64
scalar MyScenario.node[24].veinsmobility 	minSpeed 	2.5826813858701
scalar MyScenario.node[24].veinsmobility 	maxSpeed 	13.878367310134
scalar MyScenario.node[24].veinsmobility 	totalDistance 	669.49066041455
scalar MyScenario.node[24].veinsmobility 	totalCO2Emission 	226.77710180661
scalar MyScenario.node[20].appl 	generatedWSMs 	1
scalar MyScenario.node[20].appl 	receivedWSMs 	5
scalar MyScenario.node[20].appl 	generatedBSMs 	0
scalar MyScenario.node[20].appl 	receivedBSMs 	0
scalar MyScenario.node[20].appl 	generatedWSAs 	0
scalar MyScenario.node[20].appl 	receivedWSAs 	0
scalar MyScenario.node[20].nic.phy80211p 	busyTime 	6.1625e-05
scalar MyScenario.node[20].nic.mac1609_4 	ReceivedUnicastPackets 	0
scalar MyScenario.node[20].nic.mac1609_4 	ReceivedBroadcasts 	5
scalar MyScenario.node[20].nic.mac1609_4 	SentPackets 	1
scalar MyScenario.node[20].nic.mac1609_4 	SNIRLostPackets 	12
scalar MyScenario.node[20].nic.mac1609_4 	RXTXLostPackets 	3
scalar MyScenario.node[20].nic.mac1609_4 	TotalLostPackets 	15
scalar MyScenario.node[20].nic.mac1609_4 	DroppedPacketsInMac 	0
scalar MyScenario.node[20].nic.mac1609_4 	TooLittleTime 	0
scalar MyScenario.node[20].nic.mac1609_4 	TimesIntoBackoff 	1
scalar MyScenario.node[20].nic.mac1609_4 	SlotsBackoff 	1
scalar MyScenario.node[20].nic.mac1609_4 	NumInternalContention 	0
scalar MyScenario.node[20].nic.mac1609_4 	totalBusyTime 	0.002089
scalar MyScenario.node[20].veinsmobility 	startTime 	1
scalar MyScenario.node[20].veinsmobility 	totalTime 	63
scalar MyScenario.node[20].veinsmobility 	stopTime 	65
scalar MyScenario.node[20].veinsmobility 	minSpeed 	0.084810425609167
scalar MyScenario.node[20].veinsmobility 	maxSpeed 	13.825365084177
scalar MyScenario.node[20].veinsmobility 	totalDistance 	678.97897711473
scalar MyScenario.node[20].veinsmobility 	totalCO2Emission 	184.16982111525
scalar MyScenario.node[7].appl 	generatedWSMs 	1
scalar MyScenario.node[7].appl 	receivedWSMs 	9
scalar MyScenario.node[7].appl 	generatedBSMs 	0
scalar MyScenario.node[7].appl 	receivedBSMs 	0
scalar MyScenario.node[7].appl 	generatedWSAs 	0
scalar MyScenario.node[7].appl 	receivedWSAs 	0
scalar MyScenario.node[7].nic.phy80211p 	busyTime 	5.3538461538462e-05
scalar MyScenario.node[7].nic.mac1609_4 	ReceivedUnicastPackets 	0
scalar MyScenario.node[7].nic.mac1609_4 	ReceivedBroadcasts 	9
scalar MyScenario.node[7].nic.mac1609_4 	SentPackets 	1
scalar MyScenario.node[7].nic.mac1609_4 	SNIRLostPackets 	6
scalar MyScenario.node[7].nic.mac1609_4 	RXTXLostPackets 	0
scalar MyScenario.node[7].nic.mac1609_4 	TotalLostPackets 	6
scalar MyScenario.node[7].nic.mac1609_4 	DroppedPacketsInMac 	0
scalar MyScenario.node[7].nic.mac1609_4 	TooLittleTime 	0
scalar MyScenario.node[7].nic.mac1609_4 	TimesIntoBackoff 	1
scalar MyScenario.node[7].nic.mac1609_4 	SlotsBackoff 	0
scalar MyScenario.node[7].nic.mac1609_4 	NumInternalContention 	0
scalar MyScenario.node[7].nic.mac1609_4 	totalBusyTime 	0.002553
scalar MyScenario.node[7].veinsmobility 	startTime 	1
scalar MyScenario.node[7].veinsmobility 	totalTime 	64
scalar MyScenario.node[7].veinsmobility 	stopTime 	66
scalar MyScenario.node[7].veinsmobility 	minSpeed 	2.1138634649105
scalar MyScenario.node[7].veinsmobility 	maxSpeed 	13.893035714398
scalar MyScenario.node[7].veinsmobility 	totalDistance 	766.18452813768
scalar MyScenario.node[7].veinsmobility 	totalCO2Emission 	192.13540298766
scalar MyScenario.node[23].appl 	generatedWSMs 	0
scalar MyScenario.node[23].appl 	receivedWSMs 	0
scalar MyScenario.node[23].appl 	generatedBSMs 	0
scalar MyScenario.node[23].appl 	receivedBSMs 	0
scalar MyScenario.node[23].appl 	generatedWSAs 	0
scalar MyScenario.node[23].appl 	receivedWSAs 	0
scalar MyScenario.node[23].nic.phy80211p 	busyTime 	7.030303030303e-06
scalar MyScenario.node[23].nic.mac1609_4 	ReceivedUnicastPackets 	0
scalar MyScenario.node[23].nic.mac1609_4 	ReceivedBroadcasts 	0
scalar MyScenario.node[23].nic.mac1609_4 	SentPackets 	0
scalar MyScenario.node[23].nic.mac1609_4 	SNIRLostPackets 	2
scalar MyScenario.node[23].nic.mac1609_4 	RXTXLostPackets 	0
scalar MyScenario.node[23].nic.mac1609_4 	TotalLostPackets 	2
scalar MyScenario.node[23].nic.mac1609_4 	DroppedPacketsInMac 	0
scalar MyScenario.node[23].nic.mac1609_4 	TooLittleTime 	0
scalar MyScenario.node[23].nic.mac1609_4 	TimesIntoBackoff 	0
scalar MyScenario.node[23].nic.mac1609_4 	SlotsBackoff 	0
scalar MyScenario.node[23].nic.mac1609_4 	NumInternalContention 	0
scalar MyScenario.node[23].nic.mac1609_4 	totalBusyTime 	0.000464
scalar MyScenario.node[23].veinsmobility 	startTime 	1
scalar MyScenario.node[23].veinsmobility 	totalTime 	65
scalar MyScenario.node[23].veinsmobility 	stopTime 	67
scalar MyScenario.node[23].veinsmobility 	minSpeed 	2.3794728580397
scalar MyScenario.node[23].veinsmobility 	maxSpeed 	13.878766188887
scalar MyScenario.node[23].veinsmobility 	totalDistance 	759.7673114553
scalar MyScenario.node[23].veinsmobility 	totalCO2Emission 	208.51357654401
scalar MyScenario.node[81].appl 	generatedWSMs 	1
scalar MyScenario.node[81].appl 	receivedWSMs 	4
scalar MyScenario.node[81].appl 	generatedBSMs 	0
scalar MyScenario.node[81].appl 	receivedBSMs 	0
scalar MyScenario.node[81].appl 	generatedWSAs 	0
scalar MyScenario.node[81].appl 	receivedWSAs 	0
scalar MyScenario.node[81].nic.phy80211p 	busyTime 	4.9212121212121e-05
scalar MyScenario.node[81].nic.mac1609_4 	ReceivedUnicastPackets 	0
scalar MyScenario.node[81].nic.mac1609_4 	ReceivedBroadcasts 	4
scalar MyScenario.node[81].nic.mac1609_4 	SentPackets 	1
scalar MyScenario.node[81].nic.mac1609_4 	SNIRLostPackets 	10
scalar MyScenario.node[81].nic.mac1609_4 	RXTXLostPackets 	4
scalar MyScenario.node[81].nic.mac1609_4 	TotalLostPackets 	14
scalar MyScenario.node[81].nic.mac1609_4 	DroppedPacketsInMac 	0
scalar MyScenario.node[81].nic.mac1609_4 	TooLittleTime 	0
scalar MyScenario.node[81].nic.mac1609_4 	TimesIntoBackoff 	1
scalar MyScenario.node[81].nic.mac1609_4 	SlotsBackoff 	1
scalar MyScenario.node[81].nic.mac1609_4 	NumInternalContention 	0
scalar MyScenario.node[81].nic.mac1609_4 	totalBusyTime 	0.002321077107
scalar MyScenario.node[81].veinsmobility 	startTime 	1
scalar MyScenario.node[81].veinsmobility 	totalTime 	65
scalar MyScenario.node[81].veinsmobility 	stopTime 	67
scalar MyScenario.node[81].veinsmobility 	minSpeed 	2.0975796846906
scalar MyScenario.node[81].veinsmobility 	maxSpeed 	13.783114144998
scalar MyScenario.node[81].veinsmobility 	totalDistance 	757.91662137885
scalar MyScenario.node[81].veinsmobility 	totalCO2Emission 	205.57014806048
scalar MyScenario.node[80].appl 	generatedWSMs 	1
scalar MyScenario.node[80].appl 	receivedWSMs 	5
scalar MyScenario.node[80].appl 	generatedBSMs 	0
scalar MyScenario.node[80].appl 	receivedBSMs 	0
scalar MyScenario.node[80].appl 	generatedWSAs 	0
scalar MyScenario.node[80].appl 	receivedWSAs 	0
scalar MyScenario.node[80].nic.phy80211p 	busyTime 	8.310447761194e-05
scalar MyScenario.node[80].nic.mac1609_4 	ReceivedUnicastPackets 	0
scalar MyScenario.node[80].nic.mac1609_4 	ReceivedBroadcasts 	5
scalar MyScenario.node[80].nic.mac1609_4 	SentPackets 	1
scalar MyScenario.node[80].nic.mac1609_4 	SNIRLostPackets 	19
scalar MyScenario.node[80].nic.mac1609_4 	RXTXLostPackets 	3
scalar MyScenario.node[80].nic.mac1609_4 	TotalLostPackets 	22
scalar MyScenario.node[80].nic.mac1609_4 	DroppedPacketsInMac 	0
scalar MyScenario.node[80].nic.mac1609_4 	TooLittleTime 	0
scalar MyScenario.node[80].nic.mac1609_4 	TimesIntoBackoff 	1
scalar MyScenario.node[80].nic.mac1609_4 	SlotsBackoff 	3
scalar MyScenario.node[80].nic.mac1609_4 	NumInternalContention 	0
scalar MyScenario.node[80].nic.mac1609_4 	totalBusyTime 	0.002785
scalar MyScenario.node[80].veinsmobility 	startTime 	1
scalar MyScenario.node[80].veinsmobility 	totalTime 	66
scalar MyScenario.node[80].veinsmobility 	stopTime 	68
scalar MyScenario.node[80].veinsmobility 	minSpeed 	1.3972095129546
scalar MyScenario.node[80].veinsmobility 	maxSpeed 	13.766722272662
scalar MyScenario.node[80].veinsmobility 	totalDistance 	763.96165785368
scalar MyScenario.node[80].veinsmobility 	totalCO2Emission 	190.52040564152
scalar MyScenario.node[60].appl 	generatedWSMs 	1
scalar MyScenario.node[60].appl 	receivedWSMs 	8
scalar MyScenario.node[60].appl 	generatedBSMs 	0
scalar MyScenario.node[60].appl 	receivedBSMs 	0
scalar MyScenario.node[60].appl 	generatedWSAs 	0
scalar MyScenario.node[60].appl 	receivedWSAs 	0
scalar MyScenario.node[60].nic.phy80211p 	busyTime 	6.1411764705882e-05
scalar MyScenario.node[60].nic.mac1609_4 	ReceivedUnicastPackets 	0
scalar MyScenario.node[60].nic.mac1609_4 	ReceivedBroadcasts 	8
scalar MyScenario.node[60].nic.mac1609_4 	SentPackets 	1
scalar MyScenario.node[60].nic.mac1609_4 	SNIRLostPackets 	10
scalar MyScenario.node[60].nic.mac1609_4 	RXTXLostPackets 	0
scalar MyScenario.node[60].nic.mac1609_4 	TotalLostPackets 	10
scalar MyScenario.node[60].nic.mac1609_4 	DroppedPacketsInMac 	0
scalar MyScenario.node[60].nic.mac1609_4 	TooLittleTime 	0
scalar MyScenario.node[60].nic.mac1609_4 	TimesIntoBackoff 	1
scalar MyScenario.node[60].nic.mac1609_4 	SlotsBackoff 	0
scalar MyScenario.node[60].nic.mac1609_4 	NumInternalContention 	0
scalar MyScenario.node[60].nic.mac1609_4 	totalBusyTime 	0.003249
scalar MyScenario.node[60].veinsmobility 	startTime 	1
scalar MyScenario.node[60].veinsmobility 	totalTime 	67
scalar MyScenario.node[60].veinsmobility 	stopTime 	69
scalar MyScenario.node[60].veinsmobility 	minSpeed 	1.5673873260152
scalar MyScenario.node[60].veinsmobility 	maxSpeed 	13.873980114213
scalar MyScenario.node[60].veinsmobility 	totalDistance 	768.44332002907
scalar MyScenario.node[60].veinsmobility 	totalCO2Emission 	223.72259162013
scalar MyScenario.node[73].appl 	generatedWSMs 	0
scalar MyScenario.node[73].appl 	receivedWSMs 	0
scalar MyScenario.node[73].appl 	generatedBSMs 	0
scalar MyScenario.node[73].appl 	receivedBSMs 	0
scalar MyScenario.node[73].appl 	generatedWSAs 	0
scalar MyScenario.node[73].appl 	receivedWSAs 	0
scalar MyScenario.node[73].nic.phy80211p 	busyTime 	2.3536231884058e-05
scalar MyScenario.node[73].nic.mac1609_4 	ReceivedUnicastPackets 	0
scalar MyScenario.node[73].nic.mac1609_4 	ReceivedBroadcasts 	0
scalar MyScenario.node[73].nic.mac1609_4 	SentPackets 	0
scalar MyScenario.node[73].nic.mac1609_4 	SNIRLostPackets 	7
scalar MyScenario.node[73].nic.mac1609_4 	RXTXLostPackets 	0
scalar MyScenario.node[73].nic.mac1609_4 	TotalLostPackets 	7
scalar MyScenario.node[73].nic.mac1609_4 	DroppedPacketsInMac 	0
scalar MyScenario.node[73].nic.mac1609_4 	TooLittleTime 	0
scalar MyScenario.node[73].nic.mac1609_4 	TimesIntoBackoff 	0
scalar MyScenario.node[73].nic.mac1609_4 	SlotsBackoff 	0
scalar MyScenario.node[73].nic.mac1609_4 	NumInternalContention 	0
scalar MyScenario.node[73].nic.mac1609_4 	totalBusyTime 	0.00116
scalar MyScenario.node[73].veinsmobility 	startTime 	1
scalar MyScenario.node[73].veinsmobility 	totalTime 	68
scalar MyScenario.node[73].veinsmobility 	stopTime 	70
scalar MyScenario.node[73].veinsmobility 	minSpeed 	2.0346446512267
scalar MyScenario.node[73].veinsmobility 	maxSpeed 	13.892974793725
scalar MyScenario.node[73].veinsmobility 	totalDistance 	760.8254107366
scalar MyScenario.node[73].veinsmobility 	totalCO2Emission 	239.26409561295
scalar MyScenario.node[21].appl 	generatedWSMs 	1
scalar MyScenario.node[21].appl 	receivedWSMs 	1
scalar MyScenario.node[21].appl 	generatedBSMs 	0
scalar MyScenario.node[21].appl 	receivedBSMs 	0
scalar MyScenario.node[21].appl 	generatedWSAs 	0
scalar MyScenario.node[21].appl 	receivedWSAs 	0
scalar MyScenario.node[21].nic.phy80211p 	busyTime 	3.3142857142857e-06
scalar MyScenario.node[21].nic.mac1609_4 	ReceivedUnicastPackets 	0
scalar MyScenario.node[21].nic.mac1609_4 	ReceivedBroadcasts 	1
scalar MyScenario.node[21].nic.mac1609_4 	SentPackets 	1
scalar MyScenario.node[21].nic.mac1609_4 	SNIRLostPackets 	0
scalar MyScenario.node[21].nic.mac1609_4 	RXTXLostPackets 	4
scalar MyScenario.node[21].nic.mac1609_4 	TotalLostPackets 	4
scalar MyScenario.node[21].nic.mac1609_4 	DroppedPacketsInMac 	0
scalar MyScenario.node[21].nic.mac1609_4 	TooLittleTime 	0
scalar MyScenario.node[21].nic.mac1609_4 	TimesIntoBackoff 	1
scalar MyScenario.node[21].nic.mac1609_4 	SlotsBackoff 	1
scalar MyScenario.node[21].nic.mac1609_4 	NumInternalContention 	0
scalar MyScenario.node[21].nic.mac1609_4 	totalBusyTime 	0.000465000052
scalar MyScenario.node[21].veinsmobility 	startTime 	1
scalar MyScenario.node[21].veinsmobility 	totalTime 	69
scalar MyScenario.node[21].veinsmobility 	stopTime 	71
scalar MyScenario.node[21].veinsmobility 	minSpeed 	2.512029569014
scalar MyScenario.node[21].veinsmobility 	maxSpeed 	13.860906847822
scalar MyScenario.node[21].veinsmobility 	totalDistance 	767.7405965339
scalar MyScenario.node[21].veinsmobility 	totalCO2Emission 	237.87694732124
scalar MyScenario.node[28].appl 	generatedWSMs 	1
scalar MyScenario.node[28].appl 	receivedWSMs 	8
scalar MyScenario.node[28].appl 	generatedBSMs 	0
scalar MyScenario.node[28].appl 	receivedBSMs 	0
scalar MyScenario.node[28].appl 	generatedWSAs 	0
scalar MyScenario.node[28].appl 	receivedWSAs 	0
scalar MyScenario.node[28].nic.phy80211p 	busyTime 	4.64e-05
scalar MyScenario.node[28].nic.mac1609_4 	ReceivedUnicastPackets 	0
scalar MyScenario.node[28].nic.mac1609_4 	ReceivedBroadcasts 	8
scalar MyScenario.node[28].nic.mac1609_4 	SentPackets 	1
scalar MyScenario.node[28].nic.mac1609_4 	SNIRLostPackets 	6
scalar MyScenario.node[28].nic.mac1609_4 	RXTXLostPackets 	10
scalar MyScenario.node[28].nic.mac1609_4 	TotalLostPackets 	16
scalar MyScenario.node[28].nic.mac1609_4 	DroppedPacketsInMac 	0
scalar MyScenario.node[28].nic.mac1609_4 	TooLittleTime 	0
scalar MyScenario.node[28].nic.mac1609_4 	TimesIntoBackoff 	1
scalar MyScenario.node[28].nic.mac1609_4 	SlotsBackoff 	3
scalar MyScenario.node[28].nic.mac1609_4 	NumInternalContention 	0
scalar MyScenario.node[28].nic.mac1609_4 	totalBusyTime 	0.002785123051
scalar MyScenario.node[28].veinsmobility 	startTime 	1
scalar MyScenario.node[28].veinsmobility 	totalTime 	69
scalar MyScenario.node[28].veinsmobility 	stopTime 	71
scalar MyScenario.node[28].veinsmobility 	minSpeed 	1.7354710491144
scalar MyScenario.node[28].veinsmobility 	maxSpeed 	13.888001461932
scalar MyScenario.node[28].veinsmobility 	totalDistance 	764.50923161316
scalar MyScenario.node[28].veinsmobility 	totalCO2Emission 	218.9308237958
scalar MyScenario.node[88].appl 	generatedWSMs 	1
scalar MyScenario.node[88].appl 	receivedWSMs 	12
scalar MyScenario.node[88].appl 	generatedBSMs 	0
scalar MyScenario.node[88].appl 	receivedBSMs 	0
scalar MyScenario.node[88].appl 	generatedWSAs 	0
scalar MyScenario.node[88].appl 	receivedWSAs 	0
scalar MyScenario.node[88].nic.phy80211p 	busyTime 	6.5791044776119e-05
scalar MyScenario.node[88].nic.mac1609_4 	ReceivedUnicastPackets 	0
scalar MyScenario.node[88].nic.mac1609_4 	ReceivedBroadcasts 	12
scalar MyScenario.node[88].nic.mac1609_4 	SentPackets 	1
scalar MyScenario.node[88].nic.mac1609_4 	SNIRLostPackets 	7
scalar MyScenario.node[88].nic.mac1609_4 	RXTXLostPackets 	1
scalar MyScenario.node[88].nic.mac1609_4 	TotalLostPackets 	8
scalar MyScenario.node[88].nic.mac1609_4 	DroppedPacketsInMac 	0
scalar MyScenario.node[88].nic.mac1609_4 	TooLittleTime 	0
scalar MyScenario.node[88].nic.mac1609_4 	TimesIntoBackoff 	1
scalar MyScenario.node[88].nic.mac1609_4 	SlotsBackoff 	3
scalar MyScenario.node[88].nic.mac1609_4 	NumInternalContention 	0
scalar MyScenario.node[88].nic.mac1609_4 	totalBusyTime 	0.003945
scalar MyScenario.node[88].veinsmobility 	startTime 	4
scalar MyScenario.node[88].veinsmobility 	totalTime 	66
scalar MyScenario.node[88].veinsmobility 	stopTime 	71
scalar MyScenario.node[88].veinsmobility 	minSpeed 	1.9287873592228
scalar MyScenario.node[88].veinsmobility 	maxSpeed 	13.878327016789
scalar MyScenario.node[88].veinsmobility 	totalDistance 	755.33070714234
scalar MyScenario.node[88].veinsmobility 	totalCO2Emission 	230.51274805897
scalar MyScenario.node[82].appl 	generatedWSMs 	1
scalar MyScenario.node[82].appl 	receivedWSMs 	12
scalar MyScenario.node[82].appl 	generatedBSMs 	0
scalar MyScenario.node[82].appl 	receivedBSMs 	0
scalar MyScenario.node[82].appl 	generatedWSAs 	0
scalar MyScenario.node[82].appl 	receivedWSAs 	0
scalar MyScenario.node[82].nic.phy80211p 	busyTime 	6.2084507042254e-05
scalar MyScenario.node[82].nic.mac1609_4 	ReceivedUnicastPackets 	0
scalar MyScenario.node[82].nic.mac1609_4 	ReceivedBroadcasts 	12
scalar MyScenario.node[82].nic.mac1609_4 	SentPackets 	1
scalar MyScenario.node[82].nic.mac1609_4 	SNIRLostPackets 	7
scalar MyScenario.node[82].nic.mac1609_4 	RXTXLostPackets 	6
scalar MyScenario.node[82].nic.mac1609_4 	TotalLostPackets 	13
scalar MyScenario.node[82].nic.mac1609_4 	DroppedPacketsInMac 	0
scalar MyScenario.node[82].nic.mac1609_4 	TooLittleTime 	0
scalar MyScenario.node[82].nic.mac1609_4 	TimesIntoBackoff 	1
scalar MyScenario.node[82].nic.mac1609_4 	SlotsBackoff 	1
scalar MyScenario.node[82].nic.mac1609_4 	NumInternalContention 	0
scalar MyScenario.node[82].nic.mac1609_4 	totalBusyTime 	0.003945
scalar MyScenario.node[82].veinsmobility 	startTime 	1
scalar MyScenario.node[82].veinsmobility 	totalTime 	70
scalar MyScenario.node[82].veinsmobility 	stopTime 	72
scalar MyScenario.node[82].veinsmobility 	minSpeed 	1.6911603907123
scalar MyScenario.node[82].veinsmobility 	maxSpeed 	13.895280303014
scalar MyScenario.node[82].veinsmobility 	totalDistance 	769.11908683691
scalar MyScenario.node[82].veinsmobility 	totalCO2Emission 	245.63737147748
scalar MyScenario.node[54].appl 	generatedWSMs 	0
scalar MyScenario.node[54].appl 	receivedWSMs 	0
scalar MyScenario.node[54].appl 	generatedBSMs 	0
scalar MyScenario.node[54].appl 	receivedBSMs 	0
scalar MyScenario.node[54].appl 	generatedWSAs 	0
scalar MyScenario.node[54].appl 	receivedWSAs 	0
scalar MyScenario.node[54].nic.phy80211p 	busyTime 	0
scalar MyScenario.node[54].nic.mac1609_4 	ReceivedUnicastPackets 	0
scalar MyScenario.node[54].nic.mac1609_4 	ReceivedBroadcasts 	0
scalar MyScenario.node[54].nic.mac1609_4 	SentPackets 	0
scalar MyScenario.node[54].nic.mac1609_4 	SNIRLostPackets 	0
scalar MyScenario.node[54].nic.mac1609_4 	RXTXLostPackets 	0
scalar MyScenario.node[54].nic.mac1609_4 	TotalLostPackets 	0
scalar MyScenario.node[54].nic.mac1609_4 	DroppedPacketsInMac 	0
scalar MyScenario.node[54].nic.mac1609_4 	TooLittleTime 	0
scalar MyScenario.node[54].nic.mac1609_4 	TimesIntoBackoff 	0
scalar MyScenario.node[54].nic.mac1609_4 	SlotsBackoff 	0
scalar MyScenario.node[54].nic.mac1609_4 	NumInternalContention 	0
scalar MyScenario.node[54].nic.mac1609_4 	totalBusyTime 	0
scalar MyScenario.node[54].veinsmobility 	startTime 	1
scalar MyScenario.node[54].veinsmobility 	totalTime 	71
scalar MyScenario.node[54].veinsmobility 	stopTime 	73
scalar MyScenario.node[54].veinsmobility 	minSpeed 	2.4968892027391
scalar MyScenario.node[54].veinsmobility 	maxSpeed 	13.878503934667
scalar MyScenario.node[54].veinsmobility 	totalDistance 	868.34146731247
scalar MyScenario.node[54].veinsmobility 	totalCO2Emission 	210.64463979987
scalar MyScenario.node[92].appl 	generatedWSMs 	1
scalar MyScenario.node[92].appl 	receivedWSMs 	6
scalar MyScenario.node[92].appl 	generatedBSMs 	0
scalar MyScenario.node[92].appl 	receivedBSMs 	0
scalar MyScenario.node[92].appl 	generatedWSAs 	0
scalar MyScenario.node[92].appl 	receivedWSAs 	0
scalar MyScenario.node[92].nic.phy80211p 	busyTime 	3.3623188405797e-05
scalar MyScenario.node[92].nic.mac1609_4 	ReceivedUnicastPackets 	0
scalar MyScenario.node[92].nic.mac1609_4 	ReceivedBroadcasts 	6
scalar MyScenario.node[92].nic.mac1609_4 	SentPackets 	1
scalar MyScenario.node[92].nic.mac1609_4 	SNIRLostPackets 	4
scalar MyScenario.node[92].nic.mac1609_4 	RXTXLostPackets 	1
scalar MyScenario.node[92].nic.mac1609_4 	TotalLostPackets 	5
scalar MyScenario.node[92].nic.mac1609_4 	DroppedPacketsInMac 	0
scalar MyScenario.node[92].nic.mac1609_4 	TooLittleTime 	0
scalar MyScenario.node[92].nic.mac1609_4 	TimesIntoBackoff 	1
scalar MyScenario.node[92].nic.mac1609_4 	SlotsBackoff 	2
scalar MyScenario.node[92].nic.mac1609_4 	NumInternalContention 	0
scalar MyScenario.node[92].nic.mac1609_4 	totalBusyTime 	0.002321
scalar MyScenario.node[92].veinsmobility 	startTime 	4
scalar MyScenario.node[92].veinsmobility 	totalTime 	68
scalar MyScenario.node[92].veinsmobility 	stopTime 	73
scalar MyScenario.node[92].veinsmobility 	minSpeed 	1.644861600874
scalar MyScenario.node[92].veinsmobility 	maxSpeed 	13.898684493499
scalar MyScenario.node[92].veinsmobility 	totalDistance 	760.64288621922
scalar MyScenario.node[92].veinsmobility 	totalCO2Emission 	217.96346698365
scalar MyScenario.node[52].appl 	generatedWSMs 	0
scalar MyScenario.node[52].appl 	receivedWSMs 	0
scalar MyScenario.node[52].appl 	generatedBSMs 	0
scalar MyScenario.node[52].appl 	receivedBSMs 	0
scalar MyScenario.node[52].appl 	generatedWSAs 	0
scalar MyScenario.node[52].appl 	receivedWSAs 	0
scalar MyScenario.node[52].nic.phy80211p 	busyTime 	1.2712328767123e-05
scalar MyScenario.node[52].nic.mac1609_4 	ReceivedUnicastPackets 	0
scalar MyScenario.node[52].nic.mac1609_4 	ReceivedBroadcasts 	0
scalar MyScenario.node[52].nic.mac1609_4 	SentPackets 	0
scalar MyScenario.node[52].nic.mac1609_4 	SNIRLostPackets 	4
scalar MyScenario.node[52].nic.mac1609_4 	RXTXLostPackets 	0
scalar MyScenario.node[52].nic.mac1609_4 	TotalLostPackets 	4
scalar MyScenario.node[52].nic.mac1609_4 	DroppedPacketsInMac 	0
scalar MyScenario.node[52].nic.mac1609_4 	TooLittleTime 	0
scalar MyScenario.node[52].nic.mac1609_4 	TimesIntoBackoff 	0
scalar MyScenario.node[52].nic.mac1609_4 	SlotsBackoff 	0
scalar MyScenario.node[52].nic.mac1609_4 	NumInternalContention 	0
scalar MyScenario.node[52].nic.mac1609_4 	totalBusyTime 	0.000232
scalar MyScenario.node[52].veinsmobility 	startTime 	1
scalar MyScenario.node[52].veinsmobility 	totalTime 	72
scalar MyScenario.node[52].veinsmobility 	stopTime 	74
scalar MyScenario.node[52].veinsmobility 	minSpeed 	2.1262006659992
scalar MyScenario.node[52].veinsmobility 	maxSpeed 	13.824188154493
scalar MyScenario.node[52].veinsmobility 	totalDistance 	870.87727578728
scalar MyScenario.node[52].veinsmobility 	totalCO2Emission 	205.61069653063
scalar MyScenario.node[18].appl 	generatedWSMs 	0
scalar MyScenario.node[18].appl 	receivedWSMs 	0
scalar MyScenario.node[18].appl 	generatedBSMs 	0
scalar MyScenario.node[18].appl 	receivedBSMs 	0
scalar MyScenario.node[18].appl 	generatedWSAs 	0
scalar MyScenario.node[18].appl 	receivedWSAs 	0
scalar MyScenario.node[18].nic.phy80211p 	busyTime 	3.0933333333333e-06
scalar MyScenario.node[18].nic.mac1609_4 	ReceivedUnicastPackets 	0
scalar MyScenario.node[18].nic.mac1609_4 	ReceivedBroadcasts 	0
scalar MyScenario.node[18].nic.mac1609_4 	SentPackets 	0
scalar MyScenario.node[18].nic.mac1609_4 	SNIRLostPackets 	1
scalar MyScenario.node[18].nic.mac1609_4 	RXTXLostPackets 	0
scalar MyScenario.node[18].nic.mac1609_4 	TotalLostPackets 	1
scalar MyScenario.node[18].nic.mac1609_4 	DroppedPacketsInMac 	0
scalar MyScenario.node[18].nic.mac1609_4 	TooLittleTime 	0
scalar MyScenario.node[18].nic.mac1609_4 	TimesIntoBackoff 	0
scalar MyScenario.node[18].nic.mac1609_4 	SlotsBackoff 	0
scalar MyScenario.node[18].nic.mac1609_4 	NumInternalContention 	0
scalar MyScenario.node[18].nic.mac1609_4 	totalBusyTime 	0.000232
scalar MyScenario.node[18].veinsmobility 	startTime 	1
scalar MyScenario.node[18].veinsmobility 	totalTime 	74
scalar MyScenario.node[18].veinsmobility 	stopTime 	76
scalar MyScenario.node[18].veinsmobility 	minSpeed 	0.0051872526165586
scalar MyScenario.node[18].veinsmobility 	maxSpeed 	13.876387919602
scalar MyScenario.node[18].veinsmobility 	totalDistance 	770.10111704442
scalar MyScenario.node[18].veinsmobility 	totalCO2Emission 	213.67933238197
scalar MyScenario.node[39].appl 	generatedWSMs 	1
scalar MyScenario.node[39].appl 	receivedWSMs 	3
scalar MyScenario.node[39].appl 	generatedBSMs 	0
scalar MyScenario.node[39].appl 	receivedBSMs 	0
scalar MyScenario.node[39].appl 	generatedWSAs 	0
scalar MyScenario.node[39].appl 	receivedWSAs 	0
scalar MyScenario.node[39].nic.phy80211p 	busyTime 	2.4421052631579e-05
scalar MyScenario.node[39].nic.mac1609_4 	ReceivedUnicastPackets 	0
scalar MyScenario.node[39].nic.mac1609_4 	ReceivedBroadcasts 	3
scalar MyScenario.node[39].nic.mac1609_4 	SentPackets 	1
scalar MyScenario.node[39].nic.mac1609_4 	SNIRLostPackets 	5
scalar MyScenario.node[39].nic.mac1609_4 	RXTXLostPackets 	4
scalar MyScenario.node[39].nic.mac1609_4 	TotalLostPackets 	9
scalar MyScenario.node[39].nic.mac1609_4 	DroppedPacketsInMac 	0
scalar MyScenario.node[39].nic.mac1609_4 	TooLittleTime 	0
scalar MyScenario.node[39].nic.mac1609_4 	TimesIntoBackoff 	1
scalar MyScenario.node[39].nic.mac1609_4 	SlotsBackoff 	2
scalar MyScenario.node[39].nic.mac1609_4 	NumInternalContention 	0
scalar MyScenario.node[39].nic.mac1609_4 	totalBusyTime 	0.001393
scalar MyScenario.node[39].veinsmobility 	startTime 	1
scalar MyScenario.node[39].veinsmobility 	totalTime 	75
scalar MyScenario.node[39].veinsmobility 	stopTime 	77
scalar MyScenario.node[39].veinsmobility 	minSpeed 	2.4260216072435
scalar MyScenario.node[39].veinsmobility 	maxSpeed 	13.891642183997
scalar MyScenario.node[39].veinsmobility 	totalDistance 	868.19661522586
scalar MyScenario.node[39].veinsmobility 	totalCO2Emission 	238.90396413764
scalar MyScenario.node[35].appl 	generatedWSMs 	1
scalar MyScenario.node[35].appl 	receivedWSMs 	1
scalar MyScenario.node[35].appl 	generatedBSMs 	0
scalar MyScenario.node[35].appl 	receivedBSMs 	0
scalar MyScenario.node[35].appl 	generatedWSAs 	0
scalar MyScenario.node[35].appl 	receivedWSAs 	0
scalar MyScenario.node[35].nic.phy80211p 	busyTime 	1.2210526315789e-05
scalar MyScenario.node[35].nic.mac1609_4 	ReceivedUnicastPackets 	0
scalar MyScenario.node[35].nic.mac1609_4 	ReceivedBroadcasts 	1
scalar MyScenario.node[35].nic.mac1609_4 	SentPackets 	1
scalar MyScenario.node[35].nic.mac1609_4 	SNIRLostPackets 	3
scalar MyScenario.node[35].nic.mac1609_4 	RXTXLostPackets 	4
scalar MyScenario.node[35].nic.mac1609_4 	TotalLostPackets 	7
scalar MyScenario.node[35].nic.mac1609_4 	DroppedPacketsInMac 	0
scalar MyScenario.node[35].nic.mac1609_4 	TooLittleTime 	0
scalar MyScenario.node[35].nic.mac1609_4 	TimesIntoBackoff 	1
scalar MyScenario.node[35].nic.mac1609_4 	SlotsBackoff 	2
scalar MyScenario.node[35].nic.mac1609_4 	NumInternalContention 	0
scalar MyScenario.node[35].nic.mac1609_4 	totalBusyTime 	0.000697157522
scalar MyScenario.node[35].veinsmobility 	startTime 	1
scalar MyScenario.node[35].veinsmobility 	totalTime 	75
scalar MyScenario.node[35].veinsmobility 	stopTime 	77
scalar MyScenario.node[35].veinsmobility 	minSpeed 	0.13140486458081
scalar MyScenario.node[35].veinsmobility 	maxSpeed 	13.855241374415
scalar MyScenario.node[35].veinsmobility 	totalDistance 	746.84683144124
scalar MyScenario.node[35].veinsmobility 	totalCO2Emission 	245.24673786625
scalar MyScenario.node[63].appl 	generatedWSMs 	0
scalar MyScenario.node[63].appl 	receivedWSMs 	0
scalar MyScenario.node[63].appl 	generatedBSMs 	0
scalar MyScenario.node[63].appl 	receivedBSMs 	0
scalar MyScenario.node[63].appl 	generatedWSAs 	0
scalar MyScenario.node[63].appl 	receivedWSAs 	0
scalar MyScenario.node[63].nic.phy80211p 	busyTime 	1.8077922077922e-05
scalar MyScenario.node[63].nic.mac1609_4 	ReceivedUnicastPackets 	0
scalar MyScenario.node[63].nic.mac1609_4 	ReceivedBroadcasts 	0
scalar MyScenario.node[63].nic.mac1609_4 	SentPackets 	0
scalar MyScenario.node[63].nic.mac1609_4 	SNIRLostPackets 	6
scalar MyScenario.node[63].nic.mac1609_4 	RXTXLostPackets 	0
scalar MyScenario.node[63].nic.mac1609_4 	TotalLostPackets 	6
scalar MyScenario.node[63].nic.mac1609_4 	DroppedPacketsInMac 	0
scalar MyScenario.node[63].nic.mac1609_4 	TooLittleTime 	0
scalar MyScenario.node[63].nic.mac1609_4 	TimesIntoBackoff 	0
scalar MyScenario.node[63].nic.mac1609_4 	SlotsBackoff 	0
scalar MyScenario.node[63].nic.mac1609_4 	NumInternalContention 	0
scalar MyScenario.node[63].nic.mac1609_4 	totalBusyTime 	0.000464
scalar MyScenario.node[63].veinsmobility 	startTime 	1
scalar MyScenario.node[63].veinsmobility 	totalTime 	76
scalar MyScenario.node[63].veinsmobility 	stopTime 	78
scalar MyScenario.node[63].veinsmobility 	minSpeed 	0.0024813838542966
scalar MyScenario.node[63].veinsmobility 	maxSpeed 	13.825332979532
scalar MyScenario.node[63].veinsmobility 	totalDistance 	773.61446318829
scalar MyScenario.node[63].veinsmobility 	totalCO2Emission 	230.13714322529
scalar MyScenario.node[97].appl 	generatedWSMs 	1
scalar MyScenario.node[97].appl 	receivedWSMs 	2
scalar MyScenario.node[97].appl 	generatedBSMs 	0
scalar MyScenario.node[97].appl 	receivedBSMs 	0
scalar MyScenario.node[97].appl 	generatedWSAs 	0
scalar MyScenario.node[97].appl 	receivedWSAs 	0
scalar MyScenario.node[97].nic.phy80211p 	busyTime 	2.1945945945946e-05
scalar MyScenario.node[97].nic.mac1609_4 	ReceivedUnicastPackets 	0
scalar MyScenario.node[97].nic.mac1609_4 	ReceivedBroadcasts 	2
scalar MyScenario.node[97].nic.mac1609_4 	SentPackets 	1
scalar MyScenario.node[97].nic.mac1609_4 	SNIRLostPackets 	5
scalar MyScenario.node[97].nic.mac1609_4 	RXTXLostPackets 	3
scalar MyScenario.node[97].nic.mac1609_4 	TotalLostPackets 	8
scalar MyScenario.node[97].nic.mac1609_4 	DroppedPacketsInMac 	0
scalar MyScenario.node[97].nic.mac1609_4 	TooLittleTime 	0
scalar MyScenario.node[97].nic.mac1609_4 	TimesIntoBackoff 	1
scalar MyScenario.node[97].nic.mac1609_4 	SlotsBackoff 	3
scalar MyScenario.node[97].nic.mac1609_4 	NumInternalContention 	0
scalar MyScenario.node[97].nic.mac1609_4 	totalBusyTime 	0.00116101212
scalar MyScenario.node[97].veinsmobility 	startTime 	4
scalar MyScenario.node[97].veinsmobility 	totalTime 	73
scalar MyScenario.node[97].veinsmobility 	stopTime 	78
scalar MyScenario.node[97].veinsmobility 	minSpeed 	1.6683561815647
scalar MyScenario.node[97].veinsmobility 	maxSpeed 	13.894757020124
scalar MyScenario.node[97].veinsmobility 	totalDistance 	875.94494317113
scalar MyScenario.node[97].veinsmobility 	totalCO2Emission 	210.55007093982
scalar MyScenario.node[58].appl 	generatedWSMs 	1
scalar MyScenario.node[58].appl 	receivedWSMs 	8
scalar MyScenario.node[58].appl 	generatedBSMs 	0
scalar MyScenario.node[58].appl 	receivedBSMs 	0
scalar MyScenario.node[58].appl 	generatedWSAs 	0
scalar MyScenario.node[58].appl 	receivedWSAs 	0
scalar MyScenario.node[58].nic.phy80211p 	busyTime 	4.4615384615385e-05
scalar MyScenario.node[58].nic.mac1609_4 	ReceivedUnicastPackets 	0
scalar MyScenario.node[58].nic.mac1609_4 	ReceivedBroadcasts 	8
scalar MyScenario.node[58].nic.mac1609_4 	SentPackets 	1
scalar MyScenario.node[58].nic.mac1609_4 	SNIRLostPackets 	7
scalar MyScenario.node[58].nic.mac1609_4 	RXTXLostPackets 	7
scalar MyScenario.node[58].nic.mac1609_4 	TotalLostPackets 	14
scalar MyScenario.node[58].nic.mac1609_4 	DroppedPacketsInMac 	0
scalar MyScenario.node[58].nic.mac1609_4 	TooLittleTime 	0
scalar MyScenario.node[58].nic.mac1609_4 	TimesIntoBackoff 	1
scalar MyScenario.node[58].nic.mac1609_4 	SlotsBackoff 	3
scalar MyScenario.node[58].nic.mac1609_4 	NumInternalContention 	0
scalar MyScenario.node[58].nic.mac1609_4 	totalBusyTime 	0.002785022154
scalar MyScenario.node[58].veinsmobility 	startTime 	1
scalar MyScenario.node[58].veinsmobility 	totalTime 	77
[...]
scalar MyScenario.node[70].nic.mac1609_4 	SentPackets 	1
scalar MyScenario.node[70].nic.mac1609_4 	SNIRLostPackets 	12
scalar MyScenario.node[70].nic.mac1609_4 	RXTXLostPackets 	4
scalar MyScenario.node[70].nic.mac1609_4 	TotalLostPackets 	16
scalar MyScenario.node[70].nic.mac1609_4 	DroppedPacketsInMac 	0
scalar MyScenario.node[70].nic.mac1609_4 	TooLittleTime 	0
scalar MyScenario.node[70].nic.mac1609_4 	TimesIntoBackoff 	1
scalar MyScenario.node[70].nic.mac1609_4 	SlotsBackoff 	1
scalar MyScenario.node[70].nic.mac1609_4 	NumInternalContention 	0
scalar MyScenario.node[70].nic.mac1609_4 	totalBusyTime 	0.003481056149
scalar MyScenario.node[70].veinsmobility 	startTime 	1
scalar MyScenario.node[70].veinsmobility 	totalTime 	109
scalar MyScenario.node[70].veinsmobility 	stopTime 	111
scalar MyScenario.node[70].veinsmobility 	minSpeed 	1.3737010220066
scalar MyScenario.node[70].veinsmobility 	maxSpeed 	13.837658264418
scalar MyScenario.node[70].veinsmobility 	totalDistance 	1263.5319515065
scalar MyScenario.node[70].veinsmobility 	totalCO2Emission 	352.51251156123
scalar MyScenario.node[48].appl 	generatedWSMs 	1
scalar MyScenario.node[48].appl 	receivedWSMs 	7
scalar MyScenario.node[48].appl 	generatedBSMs 	0
scalar MyScenario.node[48].appl 	receivedBSMs 	0
scalar MyScenario.node[48].appl 	generatedWSAs 	0
scalar MyScenario.node[48].appl 	receivedWSAs 	0
scalar MyScenario.node[48].nic.phy80211p 	busyTime 	2.1090909090909e-05
scalar MyScenario.node[48].nic.mac1609_4 	ReceivedUnicastPackets 	0
scalar MyScenario.node[48].nic.mac1609_4 	ReceivedBroadcasts 	7
scalar MyScenario.node[48].nic.mac1609_4 	SentPackets 	1
scalar MyScenario.node[48].nic.mac1609_4 	SNIRLostPackets 	3
scalar MyScenario.node[48].nic.mac1609_4 	RXTXLostPackets 	3
scalar MyScenario.node[48].nic.mac1609_4 	TotalLostPackets 	6
scalar MyScenario.node[48].nic.mac1609_4 	DroppedPacketsInMac 	0
scalar MyScenario.node[48].nic.mac1609_4 	TooLittleTime 	0
scalar MyScenario.node[48].nic.mac1609_4 	TimesIntoBackoff 	1
scalar MyScenario.node[48].nic.mac1609_4 	SlotsBackoff 	2
scalar MyScenario.node[48].nic.mac1609_4 	NumInternalContention 	0
scalar MyScenario.node[48].nic.mac1609_4 	totalBusyTime 	0.00232113271
scalar MyScenario.node[48].veinsmobility 	startTime 	1
scalar MyScenario.node[48].veinsmobility 	totalTime 	109
scalar MyScenario.node[48].veinsmobility 	stopTime 	111
scalar MyScenario.node[48].veinsmobility 	minSpeed 	0.2411672758481
scalar MyScenario.node[48].veinsmobility 	maxSpeed 	13.898271381226
scalar MyScenario.node[48].veinsmobility 	totalDistance 	1163.8700379916
scalar MyScenario.node[48].veinsmobility 	totalCO2Emission 	387.37871645152
scalar MyScenario.node[47].appl 	generatedWSMs 	0
scalar MyScenario.node[47].appl 	receivedWSMs 	0
scalar MyScenario.node[47].appl 	generatedBSMs 	0
scalar MyScenario.node[47].appl 	receivedBSMs 	0
scalar MyScenario.node[47].appl 	generatedWSAs 	0
scalar MyScenario.node[47].appl 	receivedWSAs 	0
scalar MyScenario.node[47].nic.phy80211p 	busyTime 	4.1801801801802e-06
scalar MyScenario.node[47].nic.mac1609_4 	ReceivedUnicastPackets 	0
scalar MyScenario.node[47].nic.mac1609_4 	ReceivedBroadcasts 	0
scalar MyScenario.node[47].nic.mac1609_4 	SentPackets 	0
scalar MyScenario.node[47].nic.mac1609_4 	SNIRLostPackets 	2
scalar MyScenario.node[47].nic.mac1609_4 	RXTXLostPackets 	0
scalar MyScenario.node[47].nic.mac1609_4 	TotalLostPackets 	2
scalar MyScenario.node[47].nic.mac1609_4 	DroppedPacketsInMac 	0
scalar MyScenario.node[47].nic.mac1609_4 	TooLittleTime 	0
scalar MyScenario.node[47].nic.mac1609_4 	TimesIntoBackoff 	0
scalar MyScenario.node[47].nic.mac1609_4 	SlotsBackoff 	0
scalar MyScenario.node[47].nic.mac1609_4 	NumInternalContention 	0
scalar MyScenario.node[47].nic.mac1609_4 	totalBusyTime 	0.000464
scalar MyScenario.node[47].veinsmobility 	startTime 	1
scalar MyScenario.node[47].veinsmobility 	totalTime 	110
scalar MyScenario.node[47].veinsmobility 	stopTime 	112
scalar MyScenario.node[47].veinsmobility 	minSpeed 	0.17356201391784
scalar MyScenario.node[47].veinsmobility 	maxSpeed 	13.837159841531
scalar MyScenario.node[47].veinsmobility 	totalDistance 	1174.7407286174
scalar MyScenario.node[47].veinsmobility 	totalCO2Emission 	354.68645113512
scalar MyScenario.node[64].appl 	generatedWSMs 	0
scalar MyScenario.node[64].appl 	receivedWSMs 	0
scalar MyScenario.node[64].appl 	generatedBSMs 	0
scalar MyScenario.node[64].appl 	receivedBSMs 	0
scalar MyScenario.node[64].appl 	generatedWSAs 	0
scalar MyScenario.node[64].appl 	receivedWSAs 	0
scalar MyScenario.node[64].nic.phy80211p 	busyTime 	1.045045045045e-05
scalar MyScenario.node[64].nic.mac1609_4 	ReceivedUnicastPackets 	0
scalar MyScenario.node[64].nic.mac1609_4 	ReceivedBroadcasts 	0
scalar MyScenario.node[64].nic.mac1609_4 	SentPackets 	0
scalar MyScenario.node[64].nic.mac1609_4 	SNIRLostPackets 	5
scalar MyScenario.node[64].nic.mac1609_4 	RXTXLostPackets 	0
scalar MyScenario.node[64].nic.mac1609_4 	TotalLostPackets 	5
scalar MyScenario.node[64].nic.mac1609_4 	DroppedPacketsInMac 	0
scalar MyScenario.node[64].nic.mac1609_4 	TooLittleTime 	0
scalar MyScenario.node[64].nic.mac1609_4 	TimesIntoBackoff 	0
scalar MyScenario.node[64].nic.mac1609_4 	SlotsBackoff 	0
scalar MyScenario.node[64].nic.mac1609_4 	NumInternalContention 	0
scalar MyScenario.node[64].nic.mac1609_4 	totalBusyTime 	0.000232
scalar MyScenario.node[64].veinsmobility 	startTime 	1
scalar MyScenario.node[64].veinsmobility 	totalTime 	110
scalar MyScenario.node[64].veinsmobility 	stopTime 	112
scalar MyScenario.node[64].veinsmobility 	minSpeed 	1.1962210861798
scalar MyScenario.node[64].veinsmobility 	maxSpeed 	13.891154459631
scalar MyScenario.node[64].veinsmobility 	totalDistance 	1265.8902652887
scalar MyScenario.node[64].veinsmobility 	totalCO2Emission 	347.95124172495
scalar MyScenario.node[29].appl 	generatedWSMs 	1
scalar MyScenario.node[29].appl 	receivedWSMs 	1
scalar MyScenario.node[29].appl 	generatedBSMs 	0
scalar MyScenario.node[29].appl 	receivedBSMs 	0
scalar MyScenario.node[29].appl 	generatedWSAs 	0
scalar MyScenario.node[29].appl 	receivedWSAs 	0
scalar MyScenario.node[29].nic.phy80211p 	busyTime 	2.2990990990991e-05
scalar MyScenario.node[29].nic.mac1609_4 	ReceivedUnicastPackets 	0
scalar MyScenario.node[29].nic.mac1609_4 	ReceivedBroadcasts 	1
scalar MyScenario.node[29].nic.mac1609_4 	SentPackets 	1
scalar MyScenario.node[29].nic.mac1609_4 	SNIRLostPackets 	10
scalar MyScenario.node[29].nic.mac1609_4 	RXTXLostPackets 	0
scalar MyScenario.node[29].nic.mac1609_4 	TotalLostPackets 	10
scalar MyScenario.node[29].nic.mac1609_4 	DroppedPacketsInMac 	0
scalar MyScenario.node[29].nic.mac1609_4 	TooLittleTime 	0
scalar MyScenario.node[29].nic.mac1609_4 	TimesIntoBackoff 	1
scalar MyScenario.node[29].nic.mac1609_4 	SlotsBackoff 	1
scalar MyScenario.node[29].nic.mac1609_4 	NumInternalContention 	0
scalar MyScenario.node[29].nic.mac1609_4 	totalBusyTime 	0.001625
scalar MyScenario.node[29].veinsmobility 	startTime 	1
scalar MyScenario.node[29].veinsmobility 	totalTime 	110
scalar MyScenario.node[29].veinsmobility 	stopTime 	112
scalar MyScenario.node[29].veinsmobility 	minSpeed 	1.4218395331874
scalar MyScenario.node[29].veinsmobility 	maxSpeed 	13.886014502589
scalar MyScenario.node[29].veinsmobility 	totalDistance 	1265.6614899752
scalar MyScenario.node[29].veinsmobility 	totalCO2Emission 	377.14213307299
scalar MyScenario.node[59].appl 	generatedWSMs 	0
scalar MyScenario.node[59].appl 	receivedWSMs 	0
scalar MyScenario.node[59].appl 	generatedBSMs 	0
scalar MyScenario.node[59].appl 	receivedBSMs 	0
scalar MyScenario.node[59].appl 	generatedWSAs 	0
scalar MyScenario.node[59].appl 	receivedWSAs 	0
scalar MyScenario.node[59].nic.phy80211p 	busyTime 	1.982905982906e-06
scalar MyScenario.node[59].nic.mac1609_4 	ReceivedUnicastPackets 	0
scalar MyScenario.node[59].nic.mac1609_4 	ReceivedBroadcasts 	0
scalar MyScenario.node[59].nic.mac1609_4 	SentPackets 	0
scalar MyScenario.node[59].nic.mac1609_4 	SNIRLostPackets 	1
scalar MyScenario.node[59].nic.mac1609_4 	RXTXLostPackets 	0
scalar MyScenario.node[59].nic.mac1609_4 	TotalLostPackets 	1
scalar MyScenario.node[59].nic.mac1609_4 	DroppedPacketsInMac 	0
scalar MyScenario.node[59].nic.mac1609_4 	TooLittleTime 	0
scalar MyScenario.node[59].nic.mac1609_4 	TimesIntoBackoff 	0
scalar MyScenario.node[59].nic.mac1609_4 	SlotsBackoff 	0
scalar MyScenario.node[59].nic.mac1609_4 	NumInternalContention 	0
scalar MyScenario.node[59].nic.mac1609_4 	totalBusyTime 	0.000232
scalar MyScenario.node[59].veinsmobility 	startTime 	1
scalar MyScenario.node[59].veinsmobility 	totalTime 	116
scalar MyScenario.node[59].veinsmobility 	stopTime 	118
scalar MyScenario.node[59].veinsmobility 	minSpeed 	0.39315827713349
scalar MyScenario.node[59].veinsmobility 	maxSpeed 	13.878595106071
scalar MyScenario.node[59].veinsmobility 	totalDistance 	1268.0476031391
scalar MyScenario.node[59].veinsmobility 	totalCO2Emission 	354.53635453459
scalar MyScenario.node[26].appl 	generatedWSMs 	1
scalar MyScenario.node[26].appl 	receivedWSMs 	1
scalar MyScenario.node[26].appl 	generatedBSMs 	0
scalar MyScenario.node[26].appl 	receivedBSMs 	0
scalar MyScenario.node[26].appl 	generatedWSAs 	0
scalar MyScenario.node[26].appl 	receivedWSAs 	0
scalar MyScenario.node[26].nic.phy80211p 	busyTime 	7.7983193277311e-06
scalar MyScenario.node[26].nic.mac1609_4 	ReceivedUnicastPackets 	0
scalar MyScenario.node[26].nic.mac1609_4 	ReceivedBroadcasts 	1
scalar MyScenario.node[26].nic.mac1609_4 	SentPackets 	1
scalar MyScenario.node[26].nic.mac1609_4 	SNIRLostPackets 	3
scalar MyScenario.node[26].nic.mac1609_4 	RXTXLostPackets 	5
scalar MyScenario.node[26].nic.mac1609_4 	TotalLostPackets 	8
scalar MyScenario.node[26].nic.mac1609_4 	DroppedPacketsInMac 	0
scalar MyScenario.node[26].nic.mac1609_4 	TooLittleTime 	0
scalar MyScenario.node[26].nic.mac1609_4 	TimesIntoBackoff 	1
scalar MyScenario.node[26].nic.mac1609_4 	SlotsBackoff 	3
scalar MyScenario.node[26].nic.mac1609_4 	NumInternalContention 	0
scalar MyScenario.node[26].nic.mac1609_4 	totalBusyTime 	0.000697
scalar MyScenario.node[26].veinsmobility 	startTime 	1
scalar MyScenario.node[26].veinsmobility 	totalTime 	118
scalar MyScenario.node[26].veinsmobility 	stopTime 	120
scalar MyScenario.node[26].veinsmobility 	minSpeed 	2.0337779042078
scalar MyScenario.node[26].veinsmobility 	maxSpeed 	13.892662924225
scalar MyScenario.node[26].veinsmobility 	totalDistance 	1365.2975330207
scalar MyScenario.node[26].veinsmobility 	totalCO2Emission 	393.41770747972
scalar MyScenario.node[50].appl 	generatedWSMs 	1
scalar MyScenario.node[50].appl 	receivedWSMs 	6
scalar MyScenario.node[50].appl 	generatedBSMs 	0
scalar MyScenario.node[50].appl 	receivedBSMs 	0
scalar MyScenario.node[50].appl 	generatedWSAs 	0
scalar MyScenario.node[50].appl 	receivedWSAs 	0
scalar MyScenario.node[50].nic.phy80211p 	busyTime 	1.7256198347107e-05
scalar MyScenario.node[50].nic.mac1609_4 	ReceivedUnicastPackets 	0
scalar MyScenario.node[50].nic.mac1609_4 	ReceivedBroadcasts 	6
scalar MyScenario.node[50].nic.mac1609_4 	SentPackets 	1
scalar MyScenario.node[50].nic.mac1609_4 	SNIRLostPackets 	3
scalar MyScenario.node[50].nic.mac1609_4 	RXTXLostPackets 	3
scalar MyScenario.node[50].nic.mac1609_4 	TotalLostPackets 	6
scalar MyScenario.node[50].nic.mac1609_4 	DroppedPacketsInMac 	0
scalar MyScenario.node[50].nic.mac1609_4 	TooLittleTime 	0
scalar MyScenario.node[50].nic.mac1609_4 	TimesIntoBackoff 	1
scalar MyScenario.node[50].nic.mac1609_4 	SlotsBackoff 	0
scalar MyScenario.node[50].nic.mac1609_4 	NumInternalContention 	0
scalar MyScenario.node[50].nic.mac1609_4 	totalBusyTime 	0.001857
scalar MyScenario.node[50].veinsmobility 	startTime 	1
scalar MyScenario.node[50].veinsmobility 	totalTime 	120
scalar MyScenario.node[50].veinsmobility 	stopTime 	122
scalar MyScenario.node[50].veinsmobility 	minSpeed 	2.0853483918821
scalar MyScenario.node[50].veinsmobility 	maxSpeed 	13.861750797299
scalar MyScenario.node[50].veinsmobility 	totalDistance 	1365.6949754989
scalar MyScenario.node[50].veinsmobility 	totalCO2Emission 	398.89935762745
scalar MyScenario.node[84].appl 	generatedWSMs 	1
scalar MyScenario.node[84].appl 	receivedWSMs 	2
scalar MyScenario.node[84].appl 	generatedBSMs 	0
scalar MyScenario.node[84].appl 	receivedBSMs 	0
scalar MyScenario.node[84].appl 	generatedWSAs 	0
scalar MyScenario.node[84].appl 	receivedWSAs 	0
scalar MyScenario.node[84].nic.phy80211p 	busyTime 	1.3096774193548e-05
scalar MyScenario.node[84].nic.mac1609_4 	ReceivedUnicastPackets 	0
scalar MyScenario.node[84].nic.mac1609_4 	ReceivedBroadcasts 	2
scalar MyScenario.node[84].nic.mac1609_4 	SentPackets 	1
scalar MyScenario.node[84].nic.mac1609_4 	SNIRLostPackets 	5
scalar MyScenario.node[84].nic.mac1609_4 	RXTXLostPackets 	3
scalar MyScenario.node[84].nic.mac1609_4 	TotalLostPackets 	8
scalar MyScenario.node[84].nic.mac1609_4 	DroppedPacketsInMac 	0
scalar MyScenario.node[84].nic.mac1609_4 	TooLittleTime 	0
scalar MyScenario.node[84].nic.mac1609_4 	TimesIntoBackoff 	1
scalar MyScenario.node[84].nic.mac1609_4 	SlotsBackoff 	0
scalar MyScenario.node[84].nic.mac1609_4 	NumInternalContention 	0
scalar MyScenario.node[84].nic.mac1609_4 	totalBusyTime 	0.001393
scalar MyScenario.node[84].veinsmobility 	startTime 	1
scalar MyScenario.node[84].veinsmobility 	totalTime 	123
scalar MyScenario.node[84].veinsmobility 	stopTime 	125
scalar MyScenario.node[84].veinsmobility 	minSpeed 	0.0089021195023676
scalar MyScenario.node[84].veinsmobility 	maxSpeed 	13.893618145166
scalar MyScenario.node[84].veinsmobility 	totalDistance 	1161.4126260625
scalar MyScenario.node[84].veinsmobility 	totalCO2Emission 	396.58674353129
scalar MyScenario.node[10].appl 	generatedWSMs 	1
scalar MyScenario.node[10].appl 	receivedWSMs 	1
scalar MyScenario.node[10].appl 	generatedBSMs 	0
scalar MyScenario.node[10].appl 	receivedBSMs 	0
scalar MyScenario.node[10].appl 	generatedWSAs 	0
scalar MyScenario.node[10].appl 	receivedWSAs 	0
scalar MyScenario.node[10].nic.phy80211p 	busyTime 	5.5238095238095e-06
scalar MyScenario.node[10].nic.mac1609_4 	ReceivedUnicastPackets 	0
scalar MyScenario.node[10].nic.mac1609_4 	ReceivedBroadcasts 	1
scalar MyScenario.node[10].nic.mac1609_4 	SentPackets 	1
scalar MyScenario.node[10].nic.mac1609_4 	SNIRLostPackets 	2
scalar MyScenario.node[10].nic.mac1609_4 	RXTXLostPackets 	1
scalar MyScenario.node[10].nic.mac1609_4 	TotalLostPackets 	3
scalar MyScenario.node[10].nic.mac1609_4 	DroppedPacketsInMac 	0
scalar MyScenario.node[10].nic.mac1609_4 	TooLittleTime 	0
scalar MyScenario.node[10].nic.mac1609_4 	TimesIntoBackoff 	1
scalar MyScenario.node[10].nic.mac1609_4 	SlotsBackoff 	0
scalar MyScenario.node[10].nic.mac1609_4 	NumInternalContention 	0
scalar MyScenario.node[10].nic.mac1609_4 	totalBusyTime 	0.000697
scalar MyScenario.node[10].veinsmobility 	startTime 	1
scalar MyScenario.node[10].veinsmobility 	totalTime 	125
scalar MyScenario.node[10].veinsmobility 	stopTime 	127
scalar MyScenario.node[10].veinsmobility 	minSpeed 	1.0859912843782
scalar MyScenario.node[10].veinsmobility 	maxSpeed 	13.851007704367
scalar MyScenario.node[10].veinsmobility 	totalDistance 	1359.4963512463
scalar MyScenario.node[10].veinsmobility 	totalCO2Emission 	434.33429792842
scalar MyScenario.node[14].appl 	generatedWSMs 	1
scalar MyScenario.node[14].appl 	receivedWSMs 	3
scalar MyScenario.node[14].appl 	generatedBSMs 	0
scalar MyScenario.node[14].appl 	receivedBSMs 	0
scalar MyScenario.node[14].appl 	generatedWSAs 	0
scalar MyScenario.node[14].appl 	receivedWSAs 	0
scalar MyScenario.node[14].nic.phy80211p 	busyTime 	2.8121212121212e-05
scalar MyScenario.node[14].nic.mac1609_4 	ReceivedUnicastPackets 	0
scalar MyScenario.node[14].nic.mac1609_4 	ReceivedBroadcasts 	3
scalar MyScenario.node[14].nic.mac1609_4 	SentPackets 	1
scalar MyScenario.node[14].nic.mac1609_4 	SNIRLostPackets 	13
scalar MyScenario.node[14].nic.mac1609_4 	RXTXLostPackets 	0
scalar MyScenario.node[14].nic.mac1609_4 	TotalLostPackets 	13
scalar MyScenario.node[14].nic.mac1609_4 	DroppedPacketsInMac 	0
scalar MyScenario.node[14].nic.mac1609_4 	TooLittleTime 	0
scalar MyScenario.node[14].nic.mac1609_4 	TimesIntoBackoff 	1
scalar MyScenario.node[14].nic.mac1609_4 	SlotsBackoff 	2
scalar MyScenario.node[14].nic.mac1609_4 	NumInternalContention 	0
scalar MyScenario.node[14].nic.mac1609_4 	totalBusyTime 	0.002089
scalar MyScenario.node[14].veinsmobility 	startTime 	1
scalar MyScenario.node[14].veinsmobility 	totalTime 	131
scalar MyScenario.node[14].veinsmobility 	stopTime 	133
scalar MyScenario.node[14].veinsmobility 	minSpeed 	0.00021609353138893
scalar MyScenario.node[14].veinsmobility 	maxSpeed 	13.876423028042
scalar MyScenario.node[14].veinsmobility 	totalDistance 	1276.9597013501
scalar MyScenario.node[14].veinsmobility 	totalCO2Emission 	401.82460881285
scalar MyScenario.node[72].appl 	generatedWSMs 	1
scalar MyScenario.node[72].appl 	receivedWSMs 	3
scalar MyScenario.node[72].appl 	generatedBSMs 	0
scalar MyScenario.node[72].appl 	receivedBSMs 	0
scalar MyScenario.node[72].appl 	generatedWSAs 	0
scalar MyScenario.node[72].appl 	receivedWSAs 	0
scalar MyScenario.node[72].nic.phy80211p 	busyTime 	1.0388059701493e-05
scalar MyScenario.node[72].nic.mac1609_4 	ReceivedUnicastPackets 	0
scalar MyScenario.node[72].nic.mac1609_4 	ReceivedBroadcasts 	3
scalar MyScenario.node[72].nic.mac1609_4 	SentPackets 	1
scalar MyScenario.node[72].nic.mac1609_4 	SNIRLostPackets 	3
scalar MyScenario.node[72].nic.mac1609_4 	RXTXLostPackets 	4
scalar MyScenario.node[72].nic.mac1609_4 	TotalLostPackets 	7
scalar MyScenario.node[72].nic.mac1609_4 	DroppedPacketsInMac 	0
scalar MyScenario.node[72].nic.mac1609_4 	TooLittleTime 	0
scalar MyScenario.node[72].nic.mac1609_4 	TimesIntoBackoff 	1
scalar MyScenario.node[72].nic.mac1609_4 	SlotsBackoff 	1
scalar MyScenario.node[72].nic.mac1609_4 	NumInternalContention 	0
scalar MyScenario.node[72].nic.mac1609_4 	totalBusyTime 	0.001393
scalar MyScenario.node[72].veinsmobility 	startTime 	1
scalar MyScenario.node[72].veinsmobility 	totalTime 	133
scalar MyScenario.node[72].veinsmobility 	stopTime 	135
scalar MyScenario.node[72].veinsmobility 	minSpeed 	2.0863470598324
scalar MyScenario.node[72].veinsmobility 	maxSpeed 	13.859131698683
scalar MyScenario.node[72].veinsmobility 	totalDistance 	1472.966501165
scalar MyScenario.node[72].veinsmobility 	totalCO2Emission 	444.31474273802
scalar MyScenario.node[22].appl 	generatedWSMs 	1
scalar MyScenario.node[22].appl 	receivedWSMs 	4
scalar MyScenario.node[22].appl 	generatedBSMs 	0
scalar MyScenario.node[22].appl 	receivedBSMs 	0
scalar MyScenario.node[22].appl 	generatedWSAs 	0
scalar MyScenario.node[22].appl 	receivedWSAs 	0
scalar MyScenario.node[22].nic.phy80211p 	busyTime 	1.7971830985915e-05
scalar MyScenario.node[22].nic.mac1609_4 	ReceivedUnicastPackets 	0
scalar MyScenario.node[22].nic.mac1609_4 	ReceivedBroadcasts 	4
scalar MyScenario.node[22].nic.mac1609_4 	SentPackets 	1
scalar MyScenario.node[22].nic.mac1609_4 	SNIRLostPackets 	7
scalar MyScenario.node[22].nic.mac1609_4 	RXTXLostPackets 	3
scalar MyScenario.node[22].nic.mac1609_4 	TotalLostPackets 	10
scalar MyScenario.node[22].nic.mac1609_4 	DroppedPacketsInMac 	0
scalar MyScenario.node[22].nic.mac1609_4 	TooLittleTime 	0
scalar MyScenario.node[22].nic.mac1609_4 	TimesIntoBackoff 	1
scalar MyScenario.node[22].nic.mac1609_4 	SlotsBackoff 	0
scalar MyScenario.node[22].nic.mac1609_4 	NumInternalContention 	0
scalar MyScenario.node[22].nic.mac1609_4 	totalBusyTime 	0.001857
scalar MyScenario.node[22].veinsmobility 	startTime 	1
scalar MyScenario.node[22].veinsmobility 	totalTime 	141
scalar MyScenario.node[22].veinsmobility 	stopTime 	143
scalar MyScenario.node[22].veinsmobility 	minSpeed 	1.9548337715678
scalar MyScenario.node[22].veinsmobility 	maxSpeed 	13.897686064709
scalar MyScenario.node[22].veinsmobility 	totalDistance 	1665.1346186841
scalar MyScenario.node[22].veinsmobility 	totalCO2Emission 	434.44753069833
