version 2
run General-17-20170829-17:39:58-8100
attr configname General
attr datetime 20170829-17:39:58
attr density 200
attr experiment General
attr inifile omnetpp.ini
attr iterationvars $density=200
attr iterationvars2 "$density=200, $repetition=7"
attr measurement $density=200
attr network com.liborio.pi.MyScenario
attr processid 8100
attr repetition 7
attr replication #7
attr resultdir results
attr runnumber 17
attr seedset 7
param **.coreDebug false
param **.debug false
param *.**.nic.mac1609_4.bitrate 6Mbps
param *.**.nic.mac1609_4.txPower 20mW
param *.**.nic.mac1609_4.useServiceChannel true
param *.**.nic.phy80211p.analogueModels "xmldoc(\"config.xml\")"
param *.**.nic.phy80211p.antenna "xmldoc(\"antenna.xml\", \"/root/Antenna[@id='monopole']\")"
param *.**.nic.phy80211p.decider "xmldoc(\"config.xml\")"
param *.**.nic.phy80211p.sensitivity -84.39dBm
param *.**.nic.phy80211p.thermalNoise -110dBm
param *.**.nic.phy80211p.usePropagationDelay true
param *.**.nic.phy80211p.useThermalNoise true
param *.annotations.draw true
param *.connectionManager.drawMaxIntfDist false
param *.connectionManager.maxInterfDist 2600m
param *.connectionManager.sendDirect true
param *.manager.autoShutdown true
param *.manager.host "\"localhost\""
param *.manager.launchConfig "xmldoc(string(${density = 100, 200, 300, 400})+\"_\"+ string(${repetition})+\".launchd.xml\")"
param *.manager.port 9999
param *.manager.updateInterval 1s
param *.node[*].appl.beaconInterval 1s
param *.node[*].appl.dataOnSch true
param *.node[*].appl.headerLength "80 bit"
param *.node[*].appl.isSource false
param *.node[*].appl.numMsgs 100
param *.node[*].appl.sendBeacons false
param *.node[*].appl.stopTrafficTime 130s
param *.node[*].appl.wsmInterval 3s
param *.node[*].applType "\"Flooding\""
param *.node[*].veinsmobility.x 0
param *.node[*].veinsmobility.y 0
param *.node[*].veinsmobility.z 1.895
param *.node[*].veinsmobilityType.debug true
param *.node[0].appl.isSource true
param *.playgroundSizeX 2500m
param *.playgroundSizeY 2500m
param *.playgroundSizeZ 50m

scalar . 	density 	200
scalar MyScenario.node[119].appl 	generatedWSMs 	0
scalar MyScenario.node[119].appl 	receivedWSMs 	0
scalar MyScenario.node[119].appl 	generatedBSMs 	0
scalar MyScenario.node[119].appl 	receivedBSMs 	0
scalar MyScenario.node[119].appl 	generatedWSAs 	0
scalar MyScenario.node[119].appl 	receivedWSAs 	0
scalar MyScenario.node[119].nic.phy80211p 	busyTime 	0.0002088
scalar MyScenario.node[119].nic.mac1609_4 	ReceivedUnicastPackets 	0
scalar MyScenario.node[119].nic.mac1609_4 	ReceivedBroadcasts 	0
scalar MyScenario.node[119].nic.mac1609_4 	SentPackets 	0
scalar MyScenario.node[119].nic.mac1609_4 	SNIRLostPackets 	9
scalar MyScenario.node[119].nic.mac1609_4 	RXTXLostPackets 	0
scalar MyScenario.node[119].nic.mac1609_4 	TotalLostPackets 	9
scalar MyScenario.node[119].nic.mac1609_4 	DroppedPacketsInMac 	0
scalar MyScenario.node[119].nic.mac1609_4 	TooLittleTime 	0
scalar MyScenario.node[119].nic.mac1609_4 	TimesIntoBackoff 	0
scalar MyScenario.node[119].nic.mac1609_4 	SlotsBackoff 	0
scalar MyScenario.node[119].nic.mac1609_4 	NumInternalContention 	0
scalar MyScenario.node[119].nic.mac1609_4 	totalBusyTime 	0.000232
scalar MyScenario.node[119].veinsmobility 	startTime 	1
scalar MyScenario.node[119].veinsmobility 	totalTime 	9
scalar MyScenario.node[119].veinsmobility 	stopTime 	11
scalar MyScenario.node[119].veinsmobility 	minSpeed 	2.5860956686083
scalar MyScenario.node[119].veinsmobility 	maxSpeed 	13.350952586508
scalar MyScenario.node[119].veinsmobility 	totalDistance 	83.250107042678
scalar MyScenario.node[119].veinsmobility 	totalCO2Emission 	36.721207422899
scalar MyScenario.node[69].appl 	generatedWSMs 	0
scalar MyScenario.node[69].appl 	receivedWSMs 	0
scalar MyScenario.node[69].appl 	generatedBSMs 	0
scalar MyScenario.node[69].appl 	receivedBSMs 	0
scalar MyScenario.node[69].appl 	generatedWSAs 	0
scalar MyScenario.node[69].appl 	receivedWSAs 	0
scalar MyScenario.node[69].nic.phy80211p 	busyTime 	0
scalar MyScenario.node[69].nic.mac1609_4 	ReceivedUnicastPackets 	0
scalar MyScenario.node[69].nic.mac1609_4 	ReceivedBroadcasts 	0
scalar MyScenario.node[69].nic.mac1609_4 	SentPackets 	0
scalar MyScenario.node[69].nic.mac1609_4 	SNIRLostPackets 	0
scalar MyScenario.node[69].nic.mac1609_4 	RXTXLostPackets 	0
scalar MyScenario.node[69].nic.mac1609_4 	TotalLostPackets 	0
scalar MyScenario.node[69].nic.mac1609_4 	DroppedPacketsInMac 	0
scalar MyScenario.node[69].nic.mac1609_4 	TooLittleTime 	0
scalar MyScenario.node[69].nic.mac1609_4 	TimesIntoBackoff 	0
scalar MyScenario.node[69].nic.mac1609_4 	SlotsBackoff 	0
scalar MyScenario.node[69].nic.mac1609_4 	NumInternalContention 	0
scalar MyScenario.node[69].nic.mac1609_4 	totalBusyTime 	0
scalar MyScenario.node[69].veinsmobility 	startTime 	1
scalar MyScenario.node[69].veinsmobility 	totalTime 	10
scalar MyScenario.node[69].veinsmobility 	stopTime 	12
scalar MyScenario.node[69].veinsmobility 	minSpeed 	1.5769188993145
scalar MyScenario.node[69].veinsmobility 	maxSpeed 	13.594081815286
scalar MyScenario.node[69].veinsmobility 	totalDistance 	88.550781028206
scalar MyScenario.node[69].veinsmobility 	totalCO2Emission 	40.01929694724
scalar MyScenario.node[155].appl 	generatedWSMs 	1
scalar MyScenario.node[155].appl 	receivedWSMs 	6
scalar MyScenario.node[155].appl 	generatedBSMs 	0
scalar MyScenario.node[155].appl 	receivedBSMs 	0
scalar MyScenario.node[155].appl 	generatedWSAs 	0
scalar MyScenario.node[155].appl 	receivedWSAs 	0
scalar MyScenario.node[155].nic.phy80211p 	busyTime 	0.00034117647058824
scalar MyScenario.node[155].nic.mac1609_4 	ReceivedUnicastPackets 	0
scalar MyScenario.node[155].nic.mac1609_4 	ReceivedBroadcasts 	6
scalar MyScenario.node[155].nic.mac1609_4 	SentPackets 	1
scalar MyScenario.node[155].nic.mac1609_4 	SNIRLostPackets 	19
scalar MyScenario.node[155].nic.mac1609_4 	RXTXLostPackets 	12
scalar MyScenario.node[155].nic.mac1609_4 	TotalLostPackets 	31
scalar MyScenario.node[155].nic.mac1609_4 	DroppedPacketsInMac 	0
scalar MyScenario.node[155].nic.mac1609_4 	TooLittleTime 	0
scalar MyScenario.node[155].nic.mac1609_4 	TimesIntoBackoff 	1
scalar MyScenario.node[155].nic.mac1609_4 	SlotsBackoff 	3
scalar MyScenario.node[155].nic.mac1609_4 	NumInternalContention 	0
scalar MyScenario.node[155].nic.mac1609_4 	totalBusyTime 	0.002089
scalar MyScenario.node[155].veinsmobility 	startTime 	1
scalar MyScenario.node[155].veinsmobility 	totalTime 	16
scalar MyScenario.node[155].veinsmobility 	stopTime 	18
scalar MyScenario.node[155].veinsmobility 	minSpeed 	1.8700384245254
scalar MyScenario.node[155].veinsmobility 	maxSpeed 	13.745719652344
scalar MyScenario.node[155].veinsmobility 	totalDistance 	173.71265156863
scalar MyScenario.node[155].veinsmobility 	totalCO2Emission 	53.635589157559
scalar MyScenario.node[10].appl 	generatedWSMs 	1
scalar MyScenario.node[10].appl 	receivedWSMs 	1
scalar MyScenario.node[10].appl 	generatedBSMs 	0
scalar MyScenario.node[10].appl 	receivedBSMs 	0
scalar MyScenario.node[10].appl 	generatedWSAs 	0
scalar MyScenario.node[10].appl 	receivedWSAs 	0
scalar MyScenario.node[10].nic.phy80211p 	busyTime 	0.00012566666666667
scalar MyScenario.node[10].nic.mac1609_4 	ReceivedUnicastPackets 	0
scalar MyScenario.node[10].nic.mac1609_4 	ReceivedBroadcasts 	1
scalar MyScenario.node[10].nic.mac1609_4 	SentPackets 	1
scalar MyScenario.node[10].nic.mac1609_4 	SNIRLostPackets 	12
scalar MyScenario.node[10].nic.mac1609_4 	RXTXLostPackets 	11
scalar MyScenario.node[10].nic.mac1609_4 	TotalLostPackets 	23
scalar MyScenario.node[10].nic.mac1609_4 	DroppedPacketsInMac 	0
scalar MyScenario.node[10].nic.mac1609_4 	TooLittleTime 	0
scalar MyScenario.node[10].nic.mac1609_4 	TimesIntoBackoff 	1
scalar MyScenario.node[10].nic.mac1609_4 	SlotsBackoff 	2
scalar MyScenario.node[10].nic.mac1609_4 	NumInternalContention 	0
scalar MyScenario.node[10].nic.mac1609_4 	totalBusyTime 	0.000929000217
scalar MyScenario.node[10].veinsmobility 	startTime 	1
scalar MyScenario.node[10].veinsmobility 	totalTime 	23
scalar MyScenario.node[10].veinsmobility 	stopTime 	25
scalar MyScenario.node[10].veinsmobility 	minSpeed 	2.5553928487236
scalar MyScenario.node[10].veinsmobility 	maxSpeed 	13.817475122213
scalar MyScenario.node[10].veinsmobility 	totalDistance 	268.85063007615
scalar MyScenario.node[10].veinsmobility 	totalCO2Emission 	68.995158008134
scalar MyScenario.node[83].appl 	generatedWSMs 	0
scalar MyScenario.node[83].appl 	receivedWSMs 	0
scalar MyScenario.node[83].appl 	generatedBSMs 	0
scalar MyScenario.node[83].appl 	receivedBSMs 	0
scalar MyScenario.node[83].appl 	generatedWSAs 	0
scalar MyScenario.node[83].appl 	receivedWSAs 	0
scalar MyScenario.node[83].nic.phy80211p 	busyTime 	0
scalar MyScenario.node[83].nic.mac1609_4 	ReceivedUnicastPackets 	0
scalar MyScenario.node[83].nic.mac1609_4 	ReceivedBroadcasts 	0
scalar MyScenario.node[83].nic.mac1609_4 	SentPackets 	0
scalar MyScenario.node[83].nic.mac1609_4 	SNIRLostPackets 	0
scalar MyScenario.node[83].nic.mac1609_4 	RXTXLostPackets 	0
scalar MyScenario.node[83].nic.mac1609_4 	TotalLostPackets 	0
scalar MyScenario.node[83].nic.mac1609_4 	DroppedPacketsInMac 	0
scalar MyScenario.node[83].nic.mac1609_4 	TooLittleTime 	0
scalar MyScenario.node[83].nic.mac1609_4 	TimesIntoBackoff 	0
scalar MyScenario.node[83].nic.mac1609_4 	SlotsBackoff 	0
scalar MyScenario.node[83].nic.mac1609_4 	NumInternalContention 	0
scalar MyScenario.node[83].nic.mac1609_4 	totalBusyTime 	0
scalar MyScenario.node[83].veinsmobility 	startTime 	1
scalar MyScenario.node[83].veinsmobility 	totalTime 	26
scalar MyScenario.node[83].veinsmobility 	stopTime 	28
scalar MyScenario.node[83].veinsmobility 	minSpeed 	1.5657269633608
scalar MyScenario.node[83].veinsmobility 	maxSpeed 	13.577673514397
scalar MyScenario.node[83].veinsmobility 	totalDistance 	277.25185911766
scalar MyScenario.node[83].veinsmobility 	totalCO2Emission 	87.975597041761
scalar MyScenario.node[133].appl 	generatedWSMs 	1
scalar MyScenario.node[133].appl 	receivedWSMs 	8
scalar MyScenario.node[133].appl 	generatedBSMs 	0
scalar MyScenario.node[133].appl 	receivedBSMs 	0
scalar MyScenario.node[133].appl 	generatedWSAs 	0
scalar MyScenario.node[133].appl 	receivedWSAs 	0
scalar MyScenario.node[133].nic.phy80211p 	busyTime 	0.000174
scalar MyScenario.node[133].nic.mac1609_4 	ReceivedUnicastPackets 	0
scalar MyScenario.node[133].nic.mac1609_4 	ReceivedBroadcasts 	8
scalar MyScenario.node[133].nic.mac1609_4 	SentPackets 	1
scalar MyScenario.node[133].nic.mac1609_4 	SNIRLostPackets 	13
scalar MyScenario.node[133].nic.mac1609_4 	RXTXLostPackets 	11
scalar MyScenario.node[133].nic.mac1609_4 	TotalLostPackets 	24
scalar MyScenario.node[133].nic.mac1609_4 	DroppedPacketsInMac 	0
scalar MyScenario.node[133].nic.mac1609_4 	TooLittleTime 	0
scalar MyScenario.node[133].nic.mac1609_4 	TimesIntoBackoff 	1
scalar MyScenario.node[133].nic.mac1609_4 	SlotsBackoff 	0
scalar MyScenario.node[133].nic.mac1609_4 	NumInternalContention 	0
scalar MyScenario.node[133].nic.mac1609_4 	totalBusyTime 	0.002785199383
scalar MyScenario.node[133].veinsmobility 	startTime 	1
scalar MyScenario.node[133].veinsmobility 	totalTime 	27
scalar MyScenario.node[133].veinsmobility 	stopTime 	29
scalar MyScenario.node[133].veinsmobility 	minSpeed 	1.4767452639062
scalar MyScenario.node[133].veinsmobility 	maxSpeed 	13.671411515423
scalar MyScenario.node[133].veinsmobility 	totalDistance 	280.45969340269
scalar MyScenario.node[133].veinsmobility 	totalCO2Emission 	97.327302240427
scalar MyScenario.node[171].appl 	generatedWSMs 	1
scalar MyScenario.node[171].appl 	receivedWSMs 	1
scalar MyScenario.node[171].appl 	generatedBSMs 	0
scalar MyScenario.node[171].appl 	receivedBSMs 	0
scalar MyScenario.node[171].appl 	generatedWSAs 	0
scalar MyScenario.node[171].appl 	receivedWSAs 	0
scalar MyScenario.node[171].nic.phy80211p 	busyTime 	5.1555555555556e-05
scalar MyScenario.node[171].nic.mac1609_4 	ReceivedUnicastPackets 	0
scalar MyScenario.node[171].nic.mac1609_4 	ReceivedBroadcasts 	1
scalar MyScenario.node[171].nic.mac1609_4 	SentPackets 	1
scalar MyScenario.node[171].nic.mac1609_4 	SNIRLostPackets 	5
scalar MyScenario.node[171].nic.mac1609_4 	RXTXLostPackets 	12
scalar MyScenario.node[171].nic.mac1609_4 	TotalLostPackets 	17
scalar MyScenario.node[171].nic.mac1609_4 	DroppedPacketsInMac 	0
scalar MyScenario.node[171].nic.mac1609_4 	TooLittleTime 	0
scalar MyScenario.node[171].nic.mac1609_4 	TimesIntoBackoff 	1
scalar MyScenario.node[171].nic.mac1609_4 	SlotsBackoff 	2
scalar MyScenario.node[171].nic.mac1609_4 	NumInternalContention 	0
scalar MyScenario.node[171].nic.mac1609_4 	totalBusyTime 	0.000929139705
scalar MyScenario.node[171].veinsmobility 	startTime 	4
scalar MyScenario.node[171].veinsmobility 	totalTime 	26
scalar MyScenario.node[171].veinsmobility 	stopTime 	31
scalar MyScenario.node[171].veinsmobility 	minSpeed 	1.7460565077141
scalar MyScenario.node[171].veinsmobility 	maxSpeed 	13.845160080655
scalar MyScenario.node[171].veinsmobility 	totalDistance 	282.79821591785
scalar MyScenario.node[171].veinsmobility 	totalCO2Emission 	93.934482422582
scalar MyScenario.node[132].appl 	generatedWSMs 	0
scalar MyScenario.node[132].appl 	receivedWSMs 	0
scalar MyScenario.node[132].appl 	generatedBSMs 	0
scalar MyScenario.node[132].appl 	receivedBSMs 	0
scalar MyScenario.node[132].appl 	generatedWSAs 	0
scalar MyScenario.node[132].appl 	receivedWSAs 	0
scalar MyScenario.node[132].nic.phy80211p 	busyTime 	0.00013470967741935
scalar MyScenario.node[132].nic.mac1609_4 	ReceivedUnicastPackets 	0
scalar MyScenario.node[132].nic.mac1609_4 	ReceivedBroadcasts 	0
scalar MyScenario.node[132].nic.mac1609_4 	SentPackets 	0
scalar MyScenario.node[132].nic.mac1609_4 	SNIRLostPackets 	18
scalar MyScenario.node[132].nic.mac1609_4 	RXTXLostPackets 	0
scalar MyScenario.node[132].nic.mac1609_4 	TotalLostPackets 	18
scalar MyScenario.node[132].nic.mac1609_4 	DroppedPacketsInMac 	0
scalar MyScenario.node[132].nic.mac1609_4 	TooLittleTime 	0
scalar MyScenario.node[132].nic.mac1609_4 	TimesIntoBackoff 	0
scalar MyScenario.node[132].nic.mac1609_4 	SlotsBackoff 	0
scalar MyScenario.node[132].nic.mac1609_4 	NumInternalContention 	0
scalar MyScenario.node[132].nic.mac1609_4 	totalBusyTime 	0.00116
scalar MyScenario.node[132].veinsmobility 	startTime 	1
scalar MyScenario.node[132].veinsmobility 	totalTime 	30
scalar MyScenario.node[132].veinsmobility 	stopTime 	32
scalar MyScenario.node[132].veinsmobility 	minSpeed 	0.38264369032444
scalar MyScenario.node[132].veinsmobility 	maxSpeed 	13.778602390271
scalar MyScenario.node[132].veinsmobility 	totalDistance 	279.05833563079
scalar MyScenario.node[132].veinsmobility 	totalCO2Emission 	100.56223659298
scalar MyScenario.node[118].appl 	generatedWSMs 	1
scalar MyScenario.node[118].appl 	receivedWSMs 	3
scalar MyScenario.node[118].appl 	generatedBSMs 	0
scalar MyScenario.node[118].appl 	receivedBSMs 	0
scalar MyScenario.node[118].appl 	generatedWSAs 	0
scalar MyScenario.node[118].appl 	receivedWSAs 	0
scalar MyScenario.node[118].nic.phy80211p 	busyTime 	0.00011248484848485
scalar MyScenario.node[118].nic.mac1609_4 	ReceivedUnicastPackets 	0
scalar MyScenario.node[118].nic.mac1609_4 	ReceivedBroadcasts 	3
scalar MyScenario.node[118].nic.mac1609_4 	SentPackets 	1
scalar MyScenario.node[118].nic.mac1609_4 	SNIRLostPackets 	13
scalar MyScenario.node[118].nic.mac1609_4 	RXTXLostPackets 	12
scalar MyScenario.node[118].nic.mac1609_4 	TotalLostPackets 	25
scalar MyScenario.node[118].nic.mac1609_4 	DroppedPacketsInMac 	0
scalar MyScenario.node[118].nic.mac1609_4 	TooLittleTime 	0
scalar MyScenario.node[118].nic.mac1609_4 	TimesIntoBackoff 	1
scalar MyScenario.node[118].nic.mac1609_4 	SlotsBackoff 	1
scalar MyScenario.node[118].nic.mac1609_4 	NumInternalContention 	0
scalar MyScenario.node[118].nic.mac1609_4 	totalBusyTime 	0.001625063664
scalar MyScenario.node[118].veinsmobility 	startTime 	1
scalar MyScenario.node[118].veinsmobility 	totalTime 	32
scalar MyScenario.node[118].veinsmobility 	stopTime 	34
scalar MyScenario.node[118].veinsmobility 	minSpeed 	1.5195406956598
scalar MyScenario.node[118].veinsmobility 	maxSpeed 	13.830695353588
scalar MyScenario.node[118].veinsmobility 	totalDistance 	364.18556798383
scalar MyScenario.node[118].veinsmobility 	totalCO2Emission 	103.16276100229
scalar MyScenario.node[94].appl 	generatedWSMs 	0
scalar MyScenario.node[94].appl 	receivedWSMs 	0
scalar MyScenario.node[94].appl 	generatedBSMs 	0
scalar MyScenario.node[94].appl 	receivedBSMs 	0
scalar MyScenario.node[94].appl 	generatedWSAs 	0
scalar MyScenario.node[94].appl 	receivedWSAs 	0
scalar MyScenario.node[94].nic.phy80211p 	busyTime 	1.4060606060606e-05
scalar MyScenario.node[94].nic.mac1609_4 	ReceivedUnicastPackets 	0
scalar MyScenario.node[94].nic.mac1609_4 	ReceivedBroadcasts 	0
scalar MyScenario.node[94].nic.mac1609_4 	SentPackets 	0
scalar MyScenario.node[94].nic.mac1609_4 	SNIRLostPackets 	2
scalar MyScenario.node[94].nic.mac1609_4 	RXTXLostPackets 	0
scalar MyScenario.node[94].nic.mac1609_4 	TotalLostPackets 	2
scalar MyScenario.node[94].nic.mac1609_4 	DroppedPacketsInMac 	0
scalar MyScenario.node[94].nic.mac1609_4 	TooLittleTime 	0
scalar MyScenario.node[94].nic.mac1609_4 	TimesIntoBackoff 	0
scalar MyScenario.node[94].nic.mac1609_4 	SlotsBackoff 	0
scalar MyScenario.node[94].nic.mac1609_4 	NumInternalContention 	0
scalar MyScenario.node[94].nic.mac1609_4 	totalBusyTime 	0.000232
scalar MyScenario.node[94].veinsmobility 	startTime 	1
scalar MyScenario.node[94].veinsmobility 	totalTime 	32
scalar MyScenario.node[94].veinsmobility 	stopTime 	34
scalar MyScenario.node[94].veinsmobility 	minSpeed 	1.8469307034742
scalar MyScenario.node[94].veinsmobility 	maxSpeed 	13.881553030852
scalar MyScenario.node[94].veinsmobility 	totalDistance 	368.28251005443
scalar MyScenario.node[94].veinsmobility 	totalCO2Emission 	104.72244028921
scalar MyScenario.node[62].appl 	generatedWSMs 	1
scalar MyScenario.node[62].appl 	receivedWSMs 	1
scalar MyScenario.node[62].appl 	generatedBSMs 	0
scalar MyScenario.node[62].appl 	receivedBSMs 	0
scalar MyScenario.node[62].appl 	generatedWSAs 	0
scalar MyScenario.node[62].appl 	receivedWSAs 	0
scalar MyScenario.node[62].nic.phy80211p 	busyTime 	1.4060606060606e-05
scalar MyScenario.node[62].nic.mac1609_4 	ReceivedUnicastPackets 	0
scalar MyScenario.node[62].nic.mac1609_4 	ReceivedBroadcasts 	1
scalar MyScenario.node[62].nic.mac1609_4 	SentPackets 	1
scalar MyScenario.node[62].nic.mac1609_4 	SNIRLostPackets 	1
scalar MyScenario.node[62].nic.mac1609_4 	RXTXLostPackets 	9
scalar MyScenario.node[62].nic.mac1609_4 	TotalLostPackets 	10
scalar MyScenario.node[62].nic.mac1609_4 	DroppedPacketsInMac 	0
scalar MyScenario.node[62].nic.mac1609_4 	TooLittleTime 	0
scalar MyScenario.node[62].nic.mac1609_4 	TimesIntoBackoff 	1
scalar MyScenario.node[62].nic.mac1609_4 	SlotsBackoff 	2
scalar MyScenario.node[62].nic.mac1609_4 	NumInternalContention 	0
scalar MyScenario.node[62].nic.mac1609_4 	totalBusyTime 	0.000697005454
scalar MyScenario.node[62].veinsmobility 	startTime 	1
scalar MyScenario.node[62].veinsmobility 	totalTime 	32
scalar MyScenario.node[62].veinsmobility 	stopTime 	34
scalar MyScenario.node[62].veinsmobility 	minSpeed 	1.5219038003823
scalar MyScenario.node[62].veinsmobility 	maxSpeed 	13.89551785856
scalar MyScenario.node[62].veinsmobility 	totalDistance 	377.01882456994
scalar MyScenario.node[62].veinsmobility 	totalCO2Emission 	103.36826648027
scalar MyScenario.node[95].appl 	generatedWSMs 	1
scalar MyScenario.node[95].appl 	receivedWSMs 	1
scalar MyScenario.node[95].appl 	generatedBSMs 	0
scalar MyScenario.node[95].appl 	receivedBSMs 	0
scalar MyScenario.node[95].appl 	generatedWSAs 	0
scalar MyScenario.node[95].appl 	receivedWSAs 	0
scalar MyScenario.node[95].nic.phy80211p 	busyTime 	1.3647058823529e-05
scalar MyScenario.node[95].nic.mac1609_4 	ReceivedUnicastPackets 	0
scalar MyScenario.node[95].nic.mac1609_4 	ReceivedBroadcasts 	1
scalar MyScenario.node[95].nic.mac1609_4 	SentPackets 	1
scalar MyScenario.node[95].nic.mac1609_4 	SNIRLostPackets 	1
scalar MyScenario.node[95].nic.mac1609_4 	RXTXLostPackets 	9
scalar MyScenario.node[95].nic.mac1609_4 	TotalLostPackets 	10
scalar MyScenario.node[95].nic.mac1609_4 	DroppedPacketsInMac 	0
scalar MyScenario.node[95].nic.mac1609_4 	TooLittleTime 	0
scalar MyScenario.node[95].nic.mac1609_4 	TimesIntoBackoff 	1
scalar MyScenario.node[95].nic.mac1609_4 	SlotsBackoff 	1
scalar MyScenario.node[95].nic.mac1609_4 	NumInternalContention 	0
scalar MyScenario.node[95].nic.mac1609_4 	totalBusyTime 	0.000697022496
scalar MyScenario.node[95].veinsmobility 	startTime 	1
scalar MyScenario.node[95].veinsmobility 	totalTime 	33
scalar MyScenario.node[95].veinsmobility 	stopTime 	35
scalar MyScenario.node[95].veinsmobility 	minSpeed 	2.5620959043736
scalar MyScenario.node[95].veinsmobility 	maxSpeed 	13.822942284029
scalar MyScenario.node[95].veinsmobility 	totalDistance 	375.21227201967
scalar MyScenario.node[95].veinsmobility 	totalCO2Emission 	104.93800200695
scalar MyScenario.node[80].appl 	generatedWSMs 	1
scalar MyScenario.node[80].appl 	receivedWSMs 	3
scalar MyScenario.node[80].appl 	generatedBSMs 	0
scalar MyScenario.node[80].appl 	receivedBSMs 	0
scalar MyScenario.node[80].appl 	generatedWSAs 	0
scalar MyScenario.node[80].appl 	receivedWSAs 	0
scalar MyScenario.node[80].nic.phy80211p 	busyTime 	7.5058823529412e-05
scalar MyScenario.node[80].nic.mac1609_4 	ReceivedUnicastPackets 	0
scalar MyScenario.node[80].nic.mac1609_4 	ReceivedBroadcasts 	3
scalar MyScenario.node[80].nic.mac1609_4 	SentPackets 	1
scalar MyScenario.node[80].nic.mac1609_4 	SNIRLostPackets 	8
scalar MyScenario.node[80].nic.mac1609_4 	RXTXLostPackets 	6
scalar MyScenario.node[80].nic.mac1609_4 	TotalLostPackets 	14
scalar MyScenario.node[80].nic.mac1609_4 	DroppedPacketsInMac 	0
scalar MyScenario.node[80].nic.mac1609_4 	TooLittleTime 	0
scalar MyScenario.node[80].nic.mac1609_4 	TimesIntoBackoff 	1
scalar MyScenario.node[80].nic.mac1609_4 	SlotsBackoff 	0
scalar MyScenario.node[80].nic.mac1609_4 	NumInternalContention 	0
scalar MyScenario.node[80].nic.mac1609_4 	totalBusyTime 	0.001393
scalar MyScenario.node[80].veinsmobility 	startTime 	1
scalar MyScenario.node[80].veinsmobility 	totalTime 	33
scalar MyScenario.node[80].veinsmobility 	stopTime 	35
scalar MyScenario.node[80].veinsmobility 	minSpeed 	2.06670977131
scalar MyScenario.node[80].veinsmobility 	maxSpeed 	13.884706047014
scalar MyScenario.node[80].veinsmobility 	totalDistance 	377.08885416218
scalar MyScenario.node[80].veinsmobility 	totalCO2Emission 	108.53992453794
scalar MyScenario.node[138].appl 	generatedWSMs 	1
scalar MyScenario.node[138].appl 	receivedWSMs 	1
scalar MyScenario.node[138].appl 	generatedBSMs 	0
scalar MyScenario.node[138].appl 	receivedBSMs 	0
scalar MyScenario.node[138].appl 	generatedWSAs 	0
scalar MyScenario.node[138].appl 	receivedWSAs 	0
scalar MyScenario.node[138].nic.phy80211p 	busyTime 	8.8705882352941e-05
scalar MyScenario.node[138].nic.mac1609_4 	ReceivedUnicastPackets 	0
scalar MyScenario.node[138].nic.mac1609_4 	ReceivedBroadcasts 	1
scalar MyScenario.node[138].nic.mac1609_4 	SentPackets 	1
scalar MyScenario.node[138].nic.mac1609_4 	SNIRLostPackets 	12
scalar MyScenario.node[138].nic.mac1609_4 	RXTXLostPackets 	9
scalar MyScenario.node[138].nic.mac1609_4 	TotalLostPackets 	21
scalar MyScenario.node[138].nic.mac1609_4 	DroppedPacketsInMac 	0
scalar MyScenario.node[138].nic.mac1609_4 	TooLittleTime 	0
scalar MyScenario.node[138].nic.mac1609_4 	TimesIntoBackoff 	1
scalar MyScenario.node[138].nic.mac1609_4 	SlotsBackoff 	1
scalar MyScenario.node[138].nic.mac1609_4 	NumInternalContention 	0
scalar MyScenario.node[138].nic.mac1609_4 	totalBusyTime 	0.001161056149
scalar MyScenario.node[138].veinsmobility 	startTime 	1
scalar MyScenario.node[138].veinsmobility 	totalTime 	33
scalar MyScenario.node[138].veinsmobility 	stopTime 	35
scalar MyScenario.node[138].veinsmobility 	minSpeed 	1.5192269008141
scalar MyScenario.node[138].veinsmobility 	maxSpeed 	13.868895271234
scalar MyScenario.node[138].veinsmobility 	totalDistance 	377.3556525771
scalar MyScenario.node[138].veinsmobility 	totalCO2Emission 	106.98934410107
scalar MyScenario.node[187].appl 	generatedWSMs 	0
scalar MyScenario.node[187].appl 	receivedWSMs 	0
scalar MyScenario.node[187].appl 	generatedBSMs 	0
scalar MyScenario.node[187].appl 	receivedBSMs 	0
scalar MyScenario.node[187].appl 	generatedWSAs 	0
scalar MyScenario.node[187].appl 	receivedWSAs 	0
scalar MyScenario.node[187].nic.phy80211p 	busyTime 	2.9e-05
scalar MyScenario.node[187].nic.mac1609_4 	ReceivedUnicastPackets 	0
scalar MyScenario.node[187].nic.mac1609_4 	ReceivedBroadcasts 	0
scalar MyScenario.node[187].nic.mac1609_4 	SentPackets 	0
scalar MyScenario.node[187].nic.mac1609_4 	SNIRLostPackets 	4
scalar MyScenario.node[187].nic.mac1609_4 	RXTXLostPackets 	0
scalar MyScenario.node[187].nic.mac1609_4 	TotalLostPackets 	4
scalar MyScenario.node[187].nic.mac1609_4 	DroppedPacketsInMac 	0
scalar MyScenario.node[187].nic.mac1609_4 	TooLittleTime 	0
scalar MyScenario.node[187].nic.mac1609_4 	TimesIntoBackoff 	0
scalar MyScenario.node[187].nic.mac1609_4 	SlotsBackoff 	0
scalar MyScenario.node[187].nic.mac1609_4 	NumInternalContention 	0
scalar MyScenario.node[187].nic.mac1609_4 	totalBusyTime 	0.000464
scalar MyScenario.node[187].veinsmobility 	startTime 	4
scalar MyScenario.node[187].veinsmobility 	totalTime 	31
scalar MyScenario.node[187].veinsmobility 	stopTime 	36
scalar MyScenario.node[187].veinsmobility 	minSpeed 	1.7098923111334
scalar MyScenario.node[187].veinsmobility 	maxSpeed 	13.872037296486
scalar MyScenario.node[187].veinsmobility 	totalDistance 	362.09001024932
scalar MyScenario.node[187].veinsmobility 	totalCO2Emission 	98.57450416225
scalar MyScenario.node[14].appl 	generatedWSMs 	1
scalar MyScenario.node[14].appl 	receivedWSMs 	2
scalar MyScenario.node[14].appl 	generatedBSMs 	0
scalar MyScenario.node[14].appl 	receivedBSMs 	0
scalar MyScenario.node[14].appl 	generatedWSAs 	0
scalar MyScenario.node[14].appl 	receivedWSAs 	0
scalar MyScenario.node[14].nic.phy80211p 	busyTime 	0.00010605714285714
scalar MyScenario.node[14].nic.mac1609_4 	ReceivedUnicastPackets 	0
scalar MyScenario.node[14].nic.mac1609_4 	ReceivedBroadcasts 	2
scalar MyScenario.node[14].nic.mac1609_4 	SentPackets 	1
scalar MyScenario.node[14].nic.mac1609_4 	SNIRLostPackets 	14
scalar MyScenario.node[14].nic.mac1609_4 	RXTXLostPackets 	9
scalar MyScenario.node[14].nic.mac1609_4 	TotalLostPackets 	23
scalar MyScenario.node[14].nic.mac1609_4 	DroppedPacketsInMac 	0
scalar MyScenario.node[14].nic.mac1609_4 	TooLittleTime 	0
scalar MyScenario.node[14].nic.mac1609_4 	TimesIntoBackoff 	1
scalar MyScenario.node[14].nic.mac1609_4 	SlotsBackoff 	2
scalar MyScenario.node[14].nic.mac1609_4 	NumInternalContention 	0
scalar MyScenario.node[14].nic.mac1609_4 	totalBusyTime 	0.001625077107
scalar MyScenario.node[14].veinsmobility 	startTime 	1
scalar MyScenario.node[14].veinsmobility 	totalTime 	34
scalar MyScenario.node[14].veinsmobility 	stopTime 	36
scalar MyScenario.node[14].veinsmobility 	minSpeed 	1.861611543037
scalar MyScenario.node[14].veinsmobility 	maxSpeed 	13.898004066502
scalar MyScenario.node[14].veinsmobility 	totalDistance 	374.38332343072
scalar MyScenario.node[14].veinsmobility 	totalCO2Emission 	118.31717887978
scalar MyScenario.node[125].appl 	generatedWSMs 	0
scalar MyScenario.node[125].appl 	receivedWSMs 	0
scalar MyScenario.node[125].appl 	generatedBSMs 	0
scalar MyScenario.node[125].appl 	receivedBSMs 	0
scalar MyScenario.node[125].appl 	generatedWSAs 	0
scalar MyScenario.node[125].appl 	receivedWSAs 	0
scalar MyScenario.node[125].nic.phy80211p 	busyTime 	6.4444444444444e-06
scalar MyScenario.node[125].nic.mac1609_4 	ReceivedUnicastPackets 	0
scalar MyScenario.node[125].nic.mac1609_4 	ReceivedBroadcasts 	0
scalar MyScenario.node[125].nic.mac1609_4 	SentPackets 	0
scalar MyScenario.node[125].nic.mac1609_4 	SNIRLostPackets 	1
scalar MyScenario.node[125].nic.mac1609_4 	RXTXLostPackets 	0
scalar MyScenario.node[125].nic.mac1609_4 	TotalLostPackets 	1
scalar MyScenario.node[125].nic.mac1609_4 	DroppedPacketsInMac 	0
scalar MyScenario.node[125].nic.mac1609_4 	TooLittleTime 	0
scalar MyScenario.node[125].nic.mac1609_4 	TimesIntoBackoff 	0
scalar MyScenario.node[125].nic.mac1609_4 	SlotsBackoff 	0
scalar MyScenario.node[125].nic.mac1609_4 	NumInternalContention 	0
scalar MyScenario.node[125].nic.mac1609_4 	totalBusyTime 	0.000232
scalar MyScenario.node[125].veinsmobility 	startTime 	1
scalar MyScenario.node[125].veinsmobility 	totalTime 	35
scalar MyScenario.node[125].veinsmobility 	stopTime 	37
scalar MyScenario.node[125].veinsmobility 	minSpeed 	1.7712228312157
scalar MyScenario.node[125].veinsmobility 	maxSpeed 	13.657108032564
scalar MyScenario.node[125].veinsmobility 	totalDistance 	378.38900335014
scalar MyScenario.node[125].veinsmobility 	totalCO2Emission 	112.80327684423
scalar MyScenario.node[91].appl 	generatedWSMs 	1
scalar MyScenario.node[91].appl 	receivedWSMs 	1
scalar MyScenario.node[91].appl 	generatedBSMs 	0
scalar MyScenario.node[91].appl 	receivedBSMs 	0
scalar MyScenario.node[91].appl 	generatedWSAs 	0
scalar MyScenario.node[91].appl 	receivedWSAs 	0
scalar MyScenario.node[91].nic.phy80211p 	busyTime 	2.5777777777778e-05
scalar MyScenario.node[91].nic.mac1609_4 	ReceivedUnicastPackets 	0
scalar MyScenario.node[91].nic.mac1609_4 	ReceivedBroadcasts 	1
scalar MyScenario.node[91].nic.mac1609_4 	SentPackets 	1
scalar MyScenario.node[91].nic.mac1609_4 	SNIRLostPackets 	3
scalar MyScenario.node[91].nic.mac1609_4 	RXTXLostPackets 	8
scalar MyScenario.node[91].nic.mac1609_4 	TotalLostPackets 	11
scalar MyScenario.node[91].nic.mac1609_4 	DroppedPacketsInMac 	0
scalar MyScenario.node[91].nic.mac1609_4 	TooLittleTime 	0
scalar MyScenario.node[91].nic.mac1609_4 	TimesIntoBackoff 	1
scalar MyScenario.node[91].nic.mac1609_4 	SlotsBackoff 	3
scalar MyScenario.node[91].nic.mac1609_4 	NumInternalContention 	0
scalar MyScenario.node[91].nic.mac1609_4 	totalBusyTime 	0.000697
scalar MyScenario.node[91].veinsmobility 	startTime 	1
scalar MyScenario.node[91].veinsmobility 	totalTime 	35
scalar MyScenario.node[91].veinsmobility 	stopTime 	37
scalar MyScenario.node[91].veinsmobility 	minSpeed 	1.450976513396
scalar MyScenario.node[91].veinsmobility 	maxSpeed 	13.88432391372
scalar MyScenario.node[91].veinsmobility 	totalDistance 	360.70978213889
scalar MyScenario.node[91].veinsmobility 	totalCO2Emission 	129.32614560611
scalar MyScenario.node[39].appl 	generatedWSMs 	1
scalar MyScenario.node[39].appl 	receivedWSMs 	1
scalar MyScenario.node[39].appl 	generatedBSMs 	0
scalar MyScenario.node[39].appl 	receivedBSMs 	0
scalar MyScenario.node[39].appl 	generatedWSAs 	0
scalar MyScenario.node[39].appl 	receivedWSAs 	0
scalar MyScenario.node[39].nic.phy80211p 	busyTime 	6.8972972972973e-05
scalar MyScenario.node[39].nic.mac1609_4 	ReceivedUnicastPackets 	0
scalar MyScenario.node[39].nic.mac1609_4 	ReceivedBroadcasts 	1
scalar MyScenario.node[39].nic.mac1609_4 	SentPackets 	1
scalar MyScenario.node[39].nic.mac1609_4 	SNIRLostPackets 	10
scalar MyScenario.node[39].nic.mac1609_4 	RXTXLostPackets 	9
scalar MyScenario.node[39].nic.mac1609_4 	TotalLostPackets 	19
scalar MyScenario.node[39].nic.mac1609_4 	DroppedPacketsInMac 	0
scalar MyScenario.node[39].nic.mac1609_4 	TooLittleTime 	0
scalar MyScenario.node[39].nic.mac1609_4 	TimesIntoBackoff 	1
scalar MyScenario.node[39].nic.mac1609_4 	SlotsBackoff 	0
scalar MyScenario.node[39].nic.mac1609_4 	NumInternalContention 	0
scalar MyScenario.node[39].nic.mac1609_4 	totalBusyTime 	0.001161
scalar MyScenario.node[39].veinsmobility 	startTime 	1
scalar MyScenario.node[39].veinsmobility 	totalTime 	36
scalar MyScenario.node[39].veinsmobility 	stopTime 	38
scalar MyScenario.node[39].veinsmobility 	minSpeed 	2.1740056167357
scalar MyScenario.node[39].veinsmobility 	maxSpeed 	13.884733591182
scalar MyScenario.node[39].veinsmobility 	totalDistance 	370.88933331611
scalar MyScenario.node[39].veinsmobility 	totalCO2Emission 	111.53862410543
scalar MyScenario.node[32].appl 	generatedWSMs 	0
scalar MyScenario.node[32].appl 	receivedWSMs 	0
scalar MyScenario.node[32].appl 	generatedBSMs 	0
scalar MyScenario.node[32].appl 	receivedBSMs 	0
scalar MyScenario.node[32].appl 	generatedWSAs 	0
scalar MyScenario.node[32].appl 	receivedWSAs 	0
scalar MyScenario.node[32].nic.phy80211p 	busyTime 	5.5238095238095e-05
scalar MyScenario.node[32].nic.mac1609_4 	ReceivedUnicastPackets 	0
scalar MyScenario.node[32].nic.mac1609_4 	ReceivedBroadcasts 	0
scalar MyScenario.node[32].nic.mac1609_4 	SentPackets 	0
scalar MyScenario.node[32].nic.mac1609_4 	SNIRLostPackets 	10
scalar MyScenario.node[32].nic.mac1609_4 	RXTXLostPackets 	0
scalar MyScenario.node[32].nic.mac1609_4 	TotalLostPackets 	10
scalar MyScenario.node[32].nic.mac1609_4 	DroppedPacketsInMac 	0
scalar MyScenario.node[32].nic.mac1609_4 	TooLittleTime 	0
scalar MyScenario.node[32].nic.mac1609_4 	TimesIntoBackoff 	0
scalar MyScenario.node[32].nic.mac1609_4 	SlotsBackoff 	0
scalar MyScenario.node[32].nic.mac1609_4 	NumInternalContention 	0
scalar MyScenario.node[32].nic.mac1609_4 	totalBusyTime 	0.000696
scalar MyScenario.node[32].veinsmobility 	startTime 	1
scalar MyScenario.node[32].veinsmobility 	totalTime 	41
scalar MyScenario.node[32].veinsmobility 	stopTime 	43
scalar MyScenario.node[32].veinsmobility 	minSpeed 	2.1773836232955
scalar MyScenario.node[32].veinsmobility 	maxSpeed 	13.808254048484
scalar MyScenario.node[32].veinsmobility 	totalDistance 	471.36254380189
scalar MyScenario.node[32].veinsmobility 	totalCO2Emission 	133.50625757293
scalar MyScenario.node[15].appl 	generatedWSMs 	1
scalar MyScenario.node[15].appl 	receivedWSMs 	9
scalar MyScenario.node[15].appl 	generatedBSMs 	0
scalar MyScenario.node[15].appl 	receivedBSMs 	0
scalar MyScenario.node[15].appl 	generatedWSAs 	0
scalar MyScenario.node[15].appl 	receivedWSAs 	0
scalar MyScenario.node[15].nic.phy80211p 	busyTime 	0.00013257142857143
scalar MyScenario.node[15].nic.mac1609_4 	ReceivedUnicastPackets 	0
scalar MyScenario.node[15].nic.mac1609_4 	ReceivedBroadcasts 	9
scalar MyScenario.node[15].nic.mac1609_4 	SentPackets 	1
scalar MyScenario.node[15].nic.mac1609_4 	SNIRLostPackets 	15
scalar MyScenario.node[15].nic.mac1609_4 	RXTXLostPackets 	6
scalar MyScenario.node[15].nic.mac1609_4 	TotalLostPackets 	21
scalar MyScenario.node[15].nic.mac1609_4 	DroppedPacketsInMac 	0
scalar MyScenario.node[15].nic.mac1609_4 	TooLittleTime 	0
scalar MyScenario.node[15].nic.mac1609_4 	TimesIntoBackoff 	1
scalar MyScenario.node[15].nic.mac1609_4 	SlotsBackoff 	2
scalar MyScenario.node[15].nic.mac1609_4 	NumInternalContention 	0
scalar MyScenario.node[15].nic.mac1609_4 	totalBusyTime 	0.003017
scalar MyScenario.node[15].veinsmobility 	startTime 	1
scalar MyScenario.node[15].veinsmobility 	totalTime 	41
scalar MyScenario.node[15].veinsmobility 	stopTime 	43
scalar MyScenario.node[15].veinsmobility 	minSpeed 	2.319832813018
scalar MyScenario.node[15].veinsmobility 	maxSpeed 	13.846713095787
scalar MyScenario.node[15].veinsmobility 	totalDistance 	482.57623212788
scalar MyScenario.node[15].veinsmobility 	totalCO2Emission 	120.52807911931
scalar MyScenario.node[96].appl 	generatedWSMs 	0
scalar MyScenario.node[96].appl 	receivedWSMs 	0
scalar MyScenario.node[96].appl 	generatedBSMs 	0
scalar MyScenario.node[96].appl 	receivedBSMs 	0
scalar MyScenario.node[96].appl 	generatedWSAs 	0
scalar MyScenario.node[96].appl 	receivedWSAs 	0
scalar MyScenario.node[96].nic.phy80211p 	busyTime 	2.7619047619048e-05
scalar MyScenario.node[96].nic.mac1609_4 	ReceivedUnicastPackets 	0
scalar MyScenario.node[96].nic.mac1609_4 	ReceivedBroadcasts 	0
scalar MyScenario.node[96].nic.mac1609_4 	SentPackets 	0
scalar MyScenario.node[96].nic.mac1609_4 	SNIRLostPackets 	5
scalar MyScenario.node[96].nic.mac1609_4 	RXTXLostPackets 	0
scalar MyScenario.node[96].nic.mac1609_4 	TotalLostPackets 	5
scalar MyScenario.node[96].nic.mac1609_4 	DroppedPacketsInMac 	0
scalar MyScenario.node[96].nic.mac1609_4 	TooLittleTime 	0
scalar MyScenario.node[96].nic.mac1609_4 	TimesIntoBackoff 	0
scalar MyScenario.node[96].nic.mac1609_4 	SlotsBackoff 	0
scalar MyScenario.node[96].nic.mac1609_4 	NumInternalContention 	0
scalar MyScenario.node[96].nic.mac1609_4 	totalBusyTime 	0.000464
scalar MyScenario.node[96].veinsmobility 	startTime 	1
scalar MyScenario.node[96].veinsmobility 	totalTime 	41
scalar MyScenario.node[96].veinsmobility 	stopTime 	43
scalar MyScenario.node[96].veinsmobility 	minSpeed 	1.4090568872634
scalar MyScenario.node[96].veinsmobility 	maxSpeed 	13.813214348094
scalar MyScenario.node[96].veinsmobility 	totalDistance 	477.4657236468
scalar MyScenario.node[96].veinsmobility 	totalCO2Emission 	120.94464259425
scalar MyScenario.node[84].appl 	generatedWSMs 	1
scalar MyScenario.node[84].appl 	receivedWSMs 	1
scalar MyScenario.node[84].appl 	generatedBSMs 	0
scalar MyScenario.node[84].appl 	receivedBSMs 	0
scalar MyScenario.node[84].appl 	generatedWSAs 	0
scalar MyScenario.node[84].appl 	receivedWSAs 	0
scalar MyScenario.node[84].nic.phy80211p 	busyTime 	7.3818181818182e-05
scalar MyScenario.node[84].nic.mac1609_4 	ReceivedUnicastPackets 	0
scalar MyScenario.node[84].nic.mac1609_4 	ReceivedBroadcasts 	1
scalar MyScenario.node[84].nic.mac1609_4 	SentPackets 	1
scalar MyScenario.node[84].nic.mac1609_4 	SNIRLostPackets 	13
scalar MyScenario.node[84].nic.mac1609_4 	RXTXLostPackets 	5
scalar MyScenario.node[84].nic.mac1609_4 	TotalLostPackets 	18
scalar MyScenario.node[84].nic.mac1609_4 	DroppedPacketsInMac 	0
scalar MyScenario.node[84].nic.mac1609_4 	TooLittleTime 	0
scalar MyScenario.node[84].nic.mac1609_4 	TimesIntoBackoff 	1
scalar MyScenario.node[84].nic.mac1609_4 	SlotsBackoff 	3
scalar MyScenario.node[84].nic.mac1609_4 	NumInternalContention 	0
scalar MyScenario.node[84].nic.mac1609_4 	totalBusyTime 	0.001161
scalar MyScenario.node[84].veinsmobility 	startTime 	1
scalar MyScenario.node[84].veinsmobility 	totalTime 	43
scalar MyScenario.node[84].veinsmobility 	stopTime 	45
scalar MyScenario.node[84].veinsmobility 	minSpeed 	1.5746890733019
scalar MyScenario.node[84].veinsmobility 	maxSpeed 	13.832424961519
scalar MyScenario.node[84].veinsmobility 	totalDistance 	466.2496341607
scalar MyScenario.node[84].veinsmobility 	totalCO2Emission 	153.65011594647
scalar MyScenario.node[136].appl 	generatedWSMs 	0
scalar MyScenario.node[136].appl 	receivedWSMs 	0
scalar MyScenario.node[136].appl 	generatedBSMs 	0
scalar MyScenario.node[136].appl 	receivedBSMs 	0
scalar MyScenario.node[136].appl 	generatedWSAs 	0
scalar MyScenario.node[136].appl 	receivedWSAs 	0
scalar MyScenario.node[136].nic.phy80211p 	busyTime 	0.00010018181818182
scalar MyScenario.node[136].nic.mac1609_4 	ReceivedUnicastPackets 	0
scalar MyScenario.node[136].nic.mac1609_4 	ReceivedBroadcasts 	0
scalar MyScenario.node[136].nic.mac1609_4 	SentPackets 	0
scalar MyScenario.node[136].nic.mac1609_4 	SNIRLostPackets 	19
scalar MyScenario.node[136].nic.mac1609_4 	RXTXLostPackets 	0
scalar MyScenario.node[136].nic.mac1609_4 	TotalLostPackets 	19
scalar MyScenario.node[136].nic.mac1609_4 	DroppedPacketsInMac 	0
scalar MyScenario.node[136].nic.mac1609_4 	TooLittleTime 	0
scalar MyScenario.node[136].nic.mac1609_4 	TimesIntoBackoff 	0
scalar MyScenario.node[136].nic.mac1609_4 	SlotsBackoff 	0
scalar MyScenario.node[136].nic.mac1609_4 	NumInternalContention 	0
scalar MyScenario.node[136].nic.mac1609_4 	totalBusyTime 	0.000696
scalar MyScenario.node[136].veinsmobility 	startTime 	1
scalar MyScenario.node[136].veinsmobility 	totalTime 	43
scalar MyScenario.node[136].veinsmobility 	stopTime 	45
scalar MyScenario.node[136].veinsmobility 	minSpeed 	2.0021646775538
scalar MyScenario.node[136].veinsmobility 	maxSpeed 	13.853157245461
scalar MyScenario.node[136].veinsmobility 	totalDistance 	461.89115906314
scalar MyScenario.node[136].veinsmobility 	totalCO2Emission 	144.14235656873
scalar MyScenario.node[147].appl 	generatedWSMs 	0
scalar MyScenario.node[147].appl 	receivedWSMs 	0
scalar MyScenario.node[147].appl 	generatedBSMs 	0
scalar MyScenario.node[147].appl 	receivedBSMs 	0
scalar MyScenario.node[147].appl 	generatedWSAs 	0
scalar MyScenario.node[147].appl 	receivedWSAs 	0
scalar MyScenario.node[147].nic.phy80211p 	busyTime 	0
scalar MyScenario.node[147].nic.mac1609_4 	ReceivedUnicastPackets 	0
scalar MyScenario.node[147].nic.mac1609_4 	ReceivedBroadcasts 	0
scalar MyScenario.node[147].nic.mac1609_4 	SentPackets 	0
scalar MyScenario.node[147].nic.mac1609_4 	SNIRLostPackets 	0
scalar MyScenario.node[147].nic.mac1609_4 	RXTXLostPackets 	0
scalar MyScenario.node[147].nic.mac1609_4 	TotalLostPackets 	0
scalar MyScenario.node[147].nic.mac1609_4 	DroppedPacketsInMac 	0
scalar MyScenario.node[147].nic.mac1609_4 	TooLittleTime 	0
scalar MyScenario.node[147].nic.mac1609_4 	TimesIntoBackoff 	0
scalar MyScenario.node[147].nic.mac1609_4 	SlotsBackoff 	0
scalar MyScenario.node[147].nic.mac1609_4 	NumInternalContention 	0
scalar MyScenario.node[147].nic.mac1609_4 	totalBusyTime 	0
scalar MyScenario.node[147].veinsmobility 	startTime 	1
scalar MyScenario.node[147].veinsmobility 	totalTime 	43
scalar MyScenario.node[147].veinsmobility 	stopTime 	45
scalar MyScenario.node[147].veinsmobility 	minSpeed 	1.3302233701805
scalar MyScenario.node[147].veinsmobility 	maxSpeed 	13.870264978614
scalar MyScenario.node[147].veinsmobility 	totalDistance 	478.09772240922
scalar MyScenario.node[147].veinsmobility 	totalCO2Emission 	138.8450941176
scalar MyScenario.node[73].appl 	generatedWSMs 	1
scalar MyScenario.node[73].appl 	receivedWSMs 	1
scalar MyScenario.node[73].appl 	generatedBSMs 	0
scalar MyScenario.node[73].appl 	receivedBSMs 	0
scalar MyScenario.node[73].appl 	generatedWSAs 	0
scalar MyScenario.node[73].appl 	receivedWSAs 	0
scalar MyScenario.node[73].nic.phy80211p 	busyTime 	4.7454545454545e-05
scalar MyScenario.node[73].nic.mac1609_4 	ReceivedUnicastPackets 	0
scalar MyScenario.node[73].nic.mac1609_4 	ReceivedBroadcasts 	1
scalar MyScenario.node[73].nic.mac1609_4 	SentPackets 	1
scalar MyScenario.node[73].nic.mac1609_4 	SNIRLostPackets 	8
scalar MyScenario.node[73].nic.mac1609_4 	RXTXLostPackets 	7
scalar MyScenario.node[73].nic.mac1609_4 	TotalLostPackets 	15
scalar MyScenario.node[73].nic.mac1609_4 	DroppedPacketsInMac 	0
scalar MyScenario.node[73].nic.mac1609_4 	TooLittleTime 	0
scalar MyScenario.node[73].nic.mac1609_4 	TimesIntoBackoff 	1
scalar MyScenario.node[73].nic.mac1609_4 	SlotsBackoff 	3
scalar MyScenario.node[73].nic.mac1609_4 	NumInternalContention 	0
scalar MyScenario.node[73].nic.mac1609_4 	totalBusyTime 	0.000929
scalar MyScenario.node[73].veinsmobility 	startTime 	1
scalar MyScenario.node[73].veinsmobility 	totalTime 	43
scalar MyScenario.node[73].veinsmobility 	stopTime 	45
scalar MyScenario.node[73].veinsmobility 	minSpeed 	2.3066901224665
scalar MyScenario.node[73].veinsmobility 	maxSpeed 	13.838658100064
scalar MyScenario.node[73].veinsmobility 	totalDistance 	472.26769414362
scalar MyScenario.node[73].veinsmobility 	totalCO2Emission 	145.29741313003
scalar MyScenario.node[137].appl 	generatedWSMs 	1
scalar MyScenario.node[137].appl 	receivedWSMs 	14
scalar MyScenario.node[137].appl 	generatedBSMs 	0
scalar MyScenario.node[137].appl 	receivedBSMs 	0
scalar MyScenario.node[137].appl 	generatedWSAs 	0
scalar MyScenario.node[137].appl 	receivedWSAs 	0
scalar MyScenario.node[137].nic.phy80211p 	busyTime 	9.28e-05
scalar MyScenario.node[137].nic.mac1609_4 	ReceivedUnicastPackets 	0
scalar MyScenario.node[137].nic.mac1609_4 	ReceivedBroadcasts 	14
scalar MyScenario.node[137].nic.mac1609_4 	SentPackets 	1
scalar MyScenario.node[137].nic.mac1609_4 	SNIRLostPackets 	4
scalar MyScenario.node[137].nic.mac1609_4 	RXTXLostPackets 	7
scalar MyScenario.node[137].nic.mac1609_4 	TotalLostPackets 	11
scalar MyScenario.node[137].nic.mac1609_4 	DroppedPacketsInMac 	0
scalar MyScenario.node[137].nic.mac1609_4 	TooLittleTime 	0
scalar MyScenario.node[137].nic.mac1609_4 	TimesIntoBackoff 	1
scalar MyScenario.node[137].nic.mac1609_4 	SlotsBackoff 	3
scalar MyScenario.node[137].nic.mac1609_4 	NumInternalContention 	0
scalar MyScenario.node[137].nic.mac1609_4 	totalBusyTime 	0.004177094527
scalar MyScenario.node[137].veinsmobility 	startTime 	1
scalar MyScenario.node[137].veinsmobility 	totalTime 	44
scalar MyScenario.node[137].veinsmobility 	stopTime 	46
scalar MyScenario.node[137].veinsmobility 	minSpeed 	0.92520750071186
scalar MyScenario.node[137].veinsmobility 	maxSpeed 	13.890259998036
scalar MyScenario.node[137].veinsmobility 	totalDistance 	484.75881749241
scalar MyScenario.node[137].veinsmobility 	totalCO2Emission 	132.02953028556
scalar MyScenario.node[177].appl 	generatedWSMs 	1
scalar MyScenario.node[177].appl 	receivedWSMs 	1
scalar MyScenario.node[177].appl 	generatedBSMs 	0
scalar MyScenario.node[177].appl 	receivedBSMs 	0
scalar MyScenario.node[177].appl 	generatedWSAs 	0
scalar MyScenario.node[177].appl 	receivedWSAs 	0
scalar MyScenario.node[177].nic.phy80211p 	busyTime 	4.9714285714286e-05
scalar MyScenario.node[177].nic.mac1609_4 	ReceivedUnicastPackets 	0
scalar MyScenario.node[177].nic.mac1609_4 	ReceivedBroadcasts 	1
scalar MyScenario.node[177].nic.mac1609_4 	SentPackets 	1
scalar MyScenario.node[177].nic.mac1609_4 	SNIRLostPackets 	8
scalar MyScenario.node[177].nic.mac1609_4 	RXTXLostPackets 	10
scalar MyScenario.node[177].nic.mac1609_4 	TotalLostPackets 	18
scalar MyScenario.node[177].nic.mac1609_4 	DroppedPacketsInMac 	0
scalar MyScenario.node[177].nic.mac1609_4 	TooLittleTime 	0
scalar MyScenario.node[177].nic.mac1609_4 	TimesIntoBackoff 	1
scalar MyScenario.node[177].nic.mac1609_4 	SlotsBackoff 	2
scalar MyScenario.node[177].nic.mac1609_4 	NumInternalContention 	0
scalar MyScenario.node[177].nic.mac1609_4 	totalBusyTime 	0.001393012997
scalar MyScenario.node[177].veinsmobility 	startTime 	4
scalar MyScenario.node[177].veinsmobility 	totalTime 	41
scalar MyScenario.node[177].veinsmobility 	stopTime 	46
scalar MyScenario.node[177].veinsmobility 	minSpeed 	1.608371468354
scalar MyScenario.node[177].veinsmobility 	maxSpeed 	13.89361182733
scalar MyScenario.node[177].veinsmobility 	totalDistance 	482.13908094241
scalar MyScenario.node[177].veinsmobility 	totalCO2Emission 	124.61726975588
scalar MyScenario.node[26].appl 	generatedWSMs 	0
scalar MyScenario.node[26].appl 	receivedWSMs 	0
scalar MyScenario.node[26].appl 	generatedBSMs 	0
scalar MyScenario.node[26].appl 	receivedBSMs 	0
scalar MyScenario.node[26].appl 	generatedWSAs 	0
scalar MyScenario.node[26].appl 	receivedWSAs 	0
scalar MyScenario.node[26].nic.phy80211p 	busyTime 	4.936170212766e-05
scalar MyScenario.node[26].nic.mac1609_4 	ReceivedUnicastPackets 	0
scalar MyScenario.node[26].nic.mac1609_4 	ReceivedBroadcasts 	0
scalar MyScenario.node[26].nic.mac1609_4 	SentPackets 	0
scalar MyScenario.node[26].nic.mac1609_4 	SNIRLostPackets 	10
scalar MyScenario.node[26].nic.mac1609_4 	RXTXLostPackets 	0
scalar MyScenario.node[26].nic.mac1609_4 	TotalLostPackets 	10
scalar MyScenario.node[26].nic.mac1609_4 	DroppedPacketsInMac 	0
scalar MyScenario.node[26].nic.mac1609_4 	TooLittleTime 	0
scalar MyScenario.node[26].nic.mac1609_4 	TimesIntoBackoff 	0
scalar MyScenario.node[26].nic.mac1609_4 	SlotsBackoff 	0
scalar MyScenario.node[26].nic.mac1609_4 	NumInternalContention 	0
scalar MyScenario.node[26].nic.mac1609_4 	totalBusyTime 	0.000464
scalar MyScenario.node[26].veinsmobility 	startTime 	1
scalar MyScenario.node[26].veinsmobility 	totalTime 	46
scalar MyScenario.node[26].veinsmobility 	stopTime 	48
scalar MyScenario.node[26].veinsmobility 	minSpeed 	0.027636619611424
scalar MyScenario.node[26].veinsmobility 	maxSpeed 	13.892994416761
scalar MyScenario.node[26].veinsmobility 	totalDistance 	463.07877459175
scalar MyScenario.node[26].veinsmobility 	totalCO2Emission 	158.14618753419
scalar MyScenario.node[21].appl 	generatedWSMs 	0
scalar MyScenario.node[21].appl 	receivedWSMs 	0
scalar MyScenario.node[21].appl 	generatedBSMs 	0
scalar MyScenario.node[21].appl 	receivedBSMs 	0
scalar MyScenario.node[21].appl 	generatedWSAs 	0
scalar MyScenario.node[21].appl 	receivedWSAs 	0
scalar MyScenario.node[21].nic.phy80211p 	busyTime 	2.468085106383e-05
scalar MyScenario.node[21].nic.mac1609_4 	ReceivedUnicastPackets 	0
scalar MyScenario.node[21].nic.mac1609_4 	ReceivedBroadcasts 	0
scalar MyScenario.node[21].nic.mac1609_4 	SentPackets 	0
scalar MyScenario.node[21].nic.mac1609_4 	SNIRLostPackets 	5
scalar MyScenario.node[21].nic.mac1609_4 	RXTXLostPackets 	0
scalar MyScenario.node[21].nic.mac1609_4 	TotalLostPackets 	5
scalar MyScenario.node[21].nic.mac1609_4 	DroppedPacketsInMac 	0
scalar MyScenario.node[21].nic.mac1609_4 	TooLittleTime 	0
scalar MyScenario.node[21].nic.mac1609_4 	TimesIntoBackoff 	0
scalar MyScenario.node[21].nic.mac1609_4 	SlotsBackoff 	0
scalar MyScenario.node[21].nic.mac1609_4 	NumInternalContention 	0
scalar MyScenario.node[21].nic.mac1609_4 	totalBusyTime 	0.000232
scalar MyScenario.node[21].veinsmobility 	startTime 	1
scalar MyScenario.node[21].veinsmobility 	totalTime 	46
scalar MyScenario.node[21].veinsmobility 	stopTime 	48
scalar MyScenario.node[21].veinsmobility 	minSpeed 	1.5233495433582
scalar MyScenario.node[21].veinsmobility 	maxSpeed 	13.811412597331
scalar MyScenario.node[21].veinsmobility 	totalDistance 	483.90616788947
scalar MyScenario.node[21].veinsmobility 	totalCO2Emission 	171.59587236814
scalar MyScenario.node[46].appl 	generatedWSMs 	0
scalar MyScenario.node[46].appl 	receivedWSMs 	0
scalar MyScenario.node[46].appl 	generatedBSMs 	0
scalar MyScenario.node[46].appl 	receivedBSMs 	0
scalar MyScenario.node[46].appl 	generatedWSAs 	0
scalar MyScenario.node[46].appl 	receivedWSAs 	0
scalar MyScenario.node[46].nic.phy80211p 	busyTime 	9.6666666666667e-06
scalar MyScenario.node[46].nic.mac1609_4 	ReceivedUnicastPackets 	0
scalar MyScenario.node[46].nic.mac1609_4 	ReceivedBroadcasts 	0
scalar MyScenario.node[46].nic.mac1609_4 	SentPackets 	0
scalar MyScenario.node[46].nic.mac1609_4 	SNIRLostPackets 	2
scalar MyScenario.node[46].nic.mac1609_4 	RXTXLostPackets 	0
scalar MyScenario.node[46].nic.mac1609_4 	TotalLostPackets 	2
scalar MyScenario.node[46].nic.mac1609_4 	DroppedPacketsInMac 	0
scalar MyScenario.node[46].nic.mac1609_4 	TooLittleTime 	0
scalar MyScenario.node[46].nic.mac1609_4 	TimesIntoBackoff 	0
scalar MyScenario.node[46].nic.mac1609_4 	SlotsBackoff 	0
scalar MyScenario.node[46].nic.mac1609_4 	NumInternalContention 	0
scalar MyScenario.node[46].nic.mac1609_4 	totalBusyTime 	0.000232
scalar MyScenario.node[46].veinsmobility 	startTime 	1
scalar MyScenario.node[46].veinsmobility 	totalTime 	47
scalar MyScenario.node[46].veinsmobility 	stopTime 	49
scalar MyScenario.node[46].veinsmobility 	minSpeed 	0.31799658337687
scalar MyScenario.node[46].veinsmobility 	maxSpeed 	13.863350630342
scalar MyScenario.node[46].veinsmobility 	totalDistance 	482.62025534815
scalar MyScenario.node[46].veinsmobility 	totalCO2Emission 	175.90674135758
scalar MyScenario.node[50].appl 	generatedWSMs 	0
scalar MyScenario.node[50].appl 	receivedWSMs 	0
scalar MyScenario.node[50].appl 	generatedBSMs 	0
scalar MyScenario.node[50].appl 	receivedBSMs 	0
scalar MyScenario.node[50].appl 	generatedWSAs 	0
scalar MyScenario.node[50].appl 	receivedWSAs 	0
scalar MyScenario.node[50].nic.phy80211p 	busyTime 	9.6666666666667e-06
scalar MyScenario.node[50].nic.mac1609_4 	ReceivedUnicastPackets 	0
scalar MyScenario.node[50].nic.mac1609_4 	ReceivedBroadcasts 	0
scalar MyScenario.node[50].nic.mac1609_4 	SentPackets 	0
scalar MyScenario.node[50].nic.mac1609_4 	SNIRLostPackets 	2
scalar MyScenario.node[50].nic.mac1609_4 	RXTXLostPackets 	0
scalar MyScenario.node[50].nic.mac1609_4 	TotalLostPackets 	2
scalar MyScenario.node[50].nic.mac1609_4 	DroppedPacketsInMac 	0
scalar MyScenario.node[50].nic.mac1609_4 	TooLittleTime 	0
scalar MyScenario.node[50].nic.mac1609_4 	TimesIntoBackoff 	0
scalar MyScenario.node[50].nic.mac1609_4 	SlotsBackoff 	0
scalar MyScenario.node[50].nic.mac1609_4 	NumInternalContention 	0
scalar MyScenario.node[50].nic.mac1609_4 	totalBusyTime 	0.000232
scalar MyScenario.node[50].veinsmobility 	startTime 	1
scalar MyScenario.node[50].veinsmobility 	totalTime 	47
scalar MyScenario.node[50].veinsmobility 	stopTime 	49
scalar MyScenario.node[50].veinsmobility 	minSpeed 	1.0206471884982
scalar MyScenario.node[50].veinsmobility 	maxSpeed 	13.873524180916
scalar MyScenario.node[50].veinsmobility 	totalDistance 	476.77492613434
scalar MyScenario.node[50].veinsmobility 	totalCO2Emission 	164.1375087141
scalar MyScenario.node[79].appl 	generatedWSMs 	1
scalar MyScenario.node[79].appl 	receivedWSMs 	9
scalar MyScenario.node[79].appl 	generatedBSMs 	0
scalar MyScenario.node[79].appl 	receivedBSMs 	0
scalar MyScenario.node[79].appl 	generatedWSAs 	0
scalar MyScenario.node[79].appl 	receivedWSAs 	0
scalar MyScenario.node[79].nic.phy80211p 	busyTime 	0.00014677551020408
scalar MyScenario.node[79].nic.mac1609_4 	ReceivedUnicastPackets 	0
scalar MyScenario.node[79].nic.mac1609_4 	ReceivedBroadcasts 	9
scalar MyScenario.node[79].nic.mac1609_4 	SentPackets 	1
scalar MyScenario.node[79].nic.mac1609_4 	SNIRLostPackets 	22
scalar MyScenario.node[79].nic.mac1609_4 	RXTXLostPackets 	10
scalar MyScenario.node[79].nic.mac1609_4 	TotalLostPackets 	32
scalar MyScenario.node[79].nic.mac1609_4 	DroppedPacketsInMac 	0
scalar MyScenario.node[79].nic.mac1609_4 	TooLittleTime 	0
scalar MyScenario.node[79].nic.mac1609_4 	TimesIntoBackoff 	1
scalar MyScenario.node[79].nic.mac1609_4 	SlotsBackoff 	0
scalar MyScenario.node[79].nic.mac1609_4 	NumInternalContention 	0
scalar MyScenario.node[79].nic.mac1609_4 	totalBusyTime 	0.003945
scalar MyScenario.node[79].veinsmobility 	startTime 	1
scalar MyScenario.node[79].veinsmobility 	totalTime 	48
scalar MyScenario.node[79].veinsmobility 	stopTime 	50
scalar MyScenario.node[79].veinsmobility 	minSpeed 	2.3099910059012
scalar MyScenario.node[79].veinsmobility 	maxSpeed 	13.848107377742
scalar MyScenario.node[79].veinsmobility 	totalDistance 	573.80606170436
scalar MyScenario.node[79].veinsmobility 	totalCO2Emission 	146.07735474206
scalar MyScenario.node[59].appl 	generatedWSMs 	1
scalar MyScenario.node[59].appl 	receivedWSMs 	9
scalar MyScenario.node[59].appl 	generatedBSMs 	0
scalar MyScenario.node[59].appl 	receivedBSMs 	0
scalar MyScenario.node[59].appl 	generatedWSAs 	0
scalar MyScenario.node[59].appl 	receivedWSAs 	0
scalar MyScenario.node[59].nic.phy80211p 	busyTime 	8.352e-05
scalar MyScenario.node[59].nic.mac1609_4 	ReceivedUnicastPackets 	0
scalar MyScenario.node[59].nic.mac1609_4 	ReceivedBroadcasts 	9
scalar MyScenario.node[59].nic.mac1609_4 	SentPackets 	1
scalar MyScenario.node[59].nic.mac1609_4 	SNIRLostPackets 	9
scalar MyScenario.node[59].nic.mac1609_4 	RXTXLostPackets 	4
scalar MyScenario.node[59].nic.mac1609_4 	TotalLostPackets 	13
scalar MyScenario.node[59].nic.mac1609_4 	DroppedPacketsInMac 	0
scalar MyScenario.node[59].nic.mac1609_4 	TooLittleTime 	0
scalar MyScenario.node[59].nic.mac1609_4 	TimesIntoBackoff 	1
scalar MyScenario.node[59].nic.mac1609_4 	SlotsBackoff 	2
scalar MyScenario.node[59].nic.mac1609_4 	NumInternalContention 	0
scalar MyScenario.node[59].nic.mac1609_4 	totalBusyTime 	0.003249
scalar MyScenario.node[59].veinsmobility 	startTime 	1
scalar MyScenario.node[59].veinsmobility 	totalTime 	49
scalar MyScenario.node[59].veinsmobility 	stopTime 	51
scalar MyScenario.node[59].veinsmobility 	minSpeed 	2.4038212952204
scalar MyScenario.node[59].veinsmobility 	maxSpeed 	13.896619330766
scalar MyScenario.node[59].veinsmobility 	totalDistance 	581.38773296739
scalar MyScenario.node[59].veinsmobility 	totalCO2Emission 	146.49370657988
scalar MyScenario.node[104].appl 	generatedWSMs 	1
scalar MyScenario.node[104].appl 	receivedWSMs 	6
scalar MyScenario.node[104].appl 	generatedBSMs 	0
scalar MyScenario.node[104].appl 	receivedBSMs 	0
scalar MyScenario.node[104].appl 	generatedWSAs 	0
scalar MyScenario.node[104].appl 	receivedWSAs 	0
scalar MyScenario.node[104].nic.phy80211p 	busyTime 	0.0001683137254902
scalar MyScenario.node[104].nic.mac1609_4 	ReceivedUnicastPackets 	0
scalar MyScenario.node[104].nic.mac1609_4 	ReceivedBroadcasts 	6
scalar MyScenario.node[104].nic.mac1609_4 	SentPackets 	1
scalar MyScenario.node[104].nic.mac1609_4 	SNIRLostPackets 	31
scalar MyScenario.node[104].nic.mac1609_4 	RXTXLostPackets 	11
scalar MyScenario.node[104].nic.mac1609_4 	TotalLostPackets 	42
scalar MyScenario.node[104].nic.mac1609_4 	DroppedPacketsInMac 	0
scalar MyScenario.node[104].nic.mac1609_4 	TooLittleTime 	0
scalar MyScenario.node[104].nic.mac1609_4 	TimesIntoBackoff 	1
scalar MyScenario.node[104].nic.mac1609_4 	SlotsBackoff 	2
scalar MyScenario.node[104].nic.mac1609_4 	NumInternalContention 	0
scalar MyScenario.node[104].nic.mac1609_4 	totalBusyTime 	0.00255311405
scalar MyScenario.node[104].veinsmobility 	startTime 	1
scalar MyScenario.node[104].veinsmobility 	totalTime 	50
scalar MyScenario.node[104].veinsmobility 	stopTime 	52
scalar MyScenario.node[104].veinsmobility 	minSpeed 	2.2992516719778e-05
scalar MyScenario.node[104].veinsmobility 	maxSpeed 	13.878416077606
scalar MyScenario.node[104].veinsmobility 	totalDistance 	382.09280817806
scalar MyScenario.node[104].veinsmobility 	totalCO2Emission 	127.60313757287
scalar MyScenario.node[170].appl 	generatedWSMs 	1
scalar MyScenario.node[170].appl 	receivedWSMs 	7
scalar MyScenario.node[170].appl 	generatedBSMs 	0
scalar MyScenario.node[170].appl 	receivedBSMs 	0
scalar MyScenario.node[170].appl 	generatedWSAs 	0
scalar MyScenario.node[170].appl 	receivedWSAs 	0
scalar MyScenario.node[170].nic.phy80211p 	busyTime 	7.25e-05
scalar MyScenario.node[170].nic.mac1609_4 	ReceivedUnicastPackets 	0
scalar MyScenario.node[170].nic.mac1609_4 	ReceivedBroadcasts 	7
scalar MyScenario.node[170].nic.mac1609_4 	SentPackets 	1
scalar MyScenario.node[170].nic.mac1609_4 	SNIRLostPackets 	8
scalar MyScenario.node[170].nic.mac1609_4 	RXTXLostPackets 	7
scalar MyScenario.node[170].nic.mac1609_4 	TotalLostPackets 	15
scalar MyScenario.node[170].nic.mac1609_4 	DroppedPacketsInMac 	0
scalar MyScenario.node[170].nic.mac1609_4 	TooLittleTime 	0
scalar MyScenario.node[170].nic.mac1609_4 	TimesIntoBackoff 	1
scalar MyScenario.node[170].nic.mac1609_4 	SlotsBackoff 	3
scalar MyScenario.node[170].nic.mac1609_4 	NumInternalContention 	0
scalar MyScenario.node[170].nic.mac1609_4 	totalBusyTime 	0.003017
scalar MyScenario.node[170].veinsmobility 	startTime 	4
scalar MyScenario.node[170].veinsmobility 	totalTime 	47
scalar MyScenario.node[170].veinsmobility 	stopTime 	52
scalar MyScenario.node[170].veinsmobility 	minSpeed 	0.0058423974369215
scalar MyScenario.node[170].veinsmobility 	maxSpeed 	13.892476939573
scalar MyScenario.node[170].veinsmobility 	totalDistance 	476.70778733766
scalar MyScenario.node[170].veinsmobility 	totalCO2Emission 	140.88777202698
scalar MyScenario.node[23].appl 	generatedWSMs 	1
scalar MyScenario.node[23].appl 	receivedWSMs 	2
scalar MyScenario.node[23].appl 	generatedBSMs 	0
scalar MyScenario.node[23].appl 	receivedBSMs 	0
scalar MyScenario.node[23].appl 	generatedWSAs 	0
scalar MyScenario.node[23].appl 	receivedWSAs 	0
scalar MyScenario.node[23].nic.phy80211p 	busyTime 	8.1882352941176e-05
scalar MyScenario.node[23].nic.mac1609_4 	ReceivedUnicastPackets 	0
scalar MyScenario.node[23].nic.mac1609_4 	ReceivedBroadcasts 	2
scalar MyScenario.node[23].nic.mac1609_4 	SentPackets 	1
scalar MyScenario.node[23].nic.mac1609_4 	SNIRLostPackets 	16
scalar MyScenario.node[23].nic.mac1609_4 	RXTXLostPackets 	0
scalar MyScenario.node[23].nic.mac1609_4 	TotalLostPackets 	16
scalar MyScenario.node[23].nic.mac1609_4 	DroppedPacketsInMac 	0
scalar MyScenario.node[23].nic.mac1609_4 	TooLittleTime 	0
scalar MyScenario.node[23].nic.mac1609_4 	TimesIntoBackoff 	1
scalar MyScenario.node[23].nic.mac1609_4 	SlotsBackoff 	0
scalar MyScenario.node[23].nic.mac1609_4 	NumInternalContention 	0
scalar MyScenario.node[23].nic.mac1609_4 	totalBusyTime 	0.001393
scalar MyScenario.node[23].veinsmobility 	startTime 	1
scalar MyScenario.node[23].veinsmobility 	totalTime 	50
scalar MyScenario.node[23].veinsmobility 	stopTime 	52
scalar MyScenario.node[23].veinsmobility 	minSpeed 	0.53478029917883
scalar MyScenario.node[23].veinsmobility 	maxSpeed 	13.829859236861
scalar MyScenario.node[23].veinsmobility 	totalDistance 	564.95587166961
scalar MyScenario.node[23].veinsmobility 	totalCO2Emission 	148.77348517783
scalar MyScenario.node[89].appl 	generatedWSMs 	0
scalar MyScenario.node[89].appl 	receivedWSMs 	0
scalar MyScenario.node[89].appl 	generatedBSMs 	0
scalar MyScenario.node[89].appl 	receivedBSMs 	0
scalar MyScenario.node[89].appl 	generatedWSAs 	0
scalar MyScenario.node[89].appl 	receivedWSAs 	0
scalar MyScenario.node[89].nic.phy80211p 	busyTime 	4.0153846153846e-05
scalar MyScenario.node[89].nic.mac1609_4 	ReceivedUnicastPackets 	0
scalar MyScenario.node[89].nic.mac1609_4 	ReceivedBroadcasts 	0
scalar MyScenario.node[89].nic.mac1609_4 	SentPackets 	0
scalar MyScenario.node[89].nic.mac1609_4 	SNIRLostPackets 	9
scalar MyScenario.node[89].nic.mac1609_4 	RXTXLostPackets 	0
scalar MyScenario.node[89].nic.mac1609_4 	TotalLostPackets 	9
scalar MyScenario.node[89].nic.mac1609_4 	DroppedPacketsInMac 	0
scalar MyScenario.node[89].nic.mac1609_4 	TooLittleTime 	0
scalar MyScenario.node[89].nic.mac1609_4 	TimesIntoBackoff 	0
scalar MyScenario.node[89].nic.mac1609_4 	SlotsBackoff 	0
scalar MyScenario.node[89].nic.mac1609_4 	NumInternalContention 	0
scalar MyScenario.node[89].nic.mac1609_4 	totalBusyTime 	0.000696
scalar MyScenario.node[89].veinsmobility 	startTime 	1
scalar MyScenario.node[89].veinsmobility 	totalTime 	51
scalar MyScenario.node[89].veinsmobility 	stopTime 	53
scalar MyScenario.node[89].veinsmobility 	minSpeed 	2.2454823859734
scalar MyScenario.node[89].veinsmobility 	maxSpeed 	13.892852047062
scalar MyScenario.node[89].veinsmobility 	totalDistance 	572.27498476018
scalar MyScenario.node[89].veinsmobility 	totalCO2Emission 	173.6062157456
scalar MyScenario.node[120].appl 	generatedWSMs 	0
scalar MyScenario.node[120].appl 	receivedWSMs 	0
scalar MyScenario.node[120].appl 	generatedBSMs 	0
scalar MyScenario.node[120].appl 	receivedBSMs 	0
scalar MyScenario.node[120].appl 	generatedWSAs 	0
scalar MyScenario.node[120].appl 	receivedWSAs 	0
scalar MyScenario.node[120].nic.phy80211p 	busyTime 	0
scalar MyScenario.node[120].nic.mac1609_4 	ReceivedUnicastPackets 	0
scalar MyScenario.node[120].nic.mac1609_4 	ReceivedBroadcasts 	0
scalar MyScenario.node[120].nic.mac1609_4 	SentPackets 	0
scalar MyScenario.node[120].nic.mac1609_4 	SNIRLostPackets 	0
scalar MyScenario.node[120].nic.mac1609_4 	RXTXLostPackets 	0
scalar MyScenario.node[120].nic.mac1609_4 	TotalLostPackets 	0
scalar MyScenario.node[120].nic.mac1609_4 	DroppedPacketsInMac 	0
scalar MyScenario.node[120].nic.mac1609_4 	TooLittleTime 	0
scalar MyScenario.node[120].nic.mac1609_4 	TimesIntoBackoff 	0
scalar MyScenario.node[120].nic.mac1609_4 	SlotsBackoff 	0
scalar MyScenario.node[120].nic.mac1609_4 	NumInternalContention 	0
scalar MyScenario.node[120].nic.mac1609_4 	totalBusyTime 	0
scalar MyScenario.node[120].veinsmobility 	startTime 	1
scalar MyScenario.node[120].veinsmobility 	totalTime 	52
scalar MyScenario.node[120].veinsmobility 	stopTime 	54
scalar MyScenario.node[120].veinsmobility 	minSpeed 	6.2785114498115e-08
scalar MyScenario.node[120].veinsmobility 	maxSpeed 	13.862843154301
scalar MyScenario.node[120].veinsmobility 	totalDistance 	480.79886570356
scalar MyScenario.node[120].veinsmobility 	totalCO2Emission 	140.70871636176
scalar MyScenario.node[180].appl 	generatedWSMs 	0
scalar MyScenario.node[180].appl 	receivedWSMs 	0
scalar MyScenario.node[180].appl 	generatedBSMs 	0
scalar MyScenario.node[180].appl 	receivedBSMs 	0
scalar MyScenario.node[180].appl 	generatedWSAs 	0
scalar MyScenario.node[180].appl 	receivedWSAs 	0
scalar MyScenario.node[180].nic.phy80211p 	busyTime 	9.0980392156863e-06
scalar MyScenario.node[180].nic.mac1609_4 	ReceivedUnicastPackets 	0
scalar MyScenario.node[180].nic.mac1609_4 	ReceivedBroadcasts 	0
scalar MyScenario.node[180].nic.mac1609_4 	SentPackets 	0
scalar MyScenario.node[180].nic.mac1609_4 	SNIRLostPackets 	2
scalar MyScenario.node[180].nic.mac1609_4 	RXTXLostPackets 	0
scalar MyScenario.node[180].nic.mac1609_4 	TotalLostPackets 	2
scalar MyScenario.node[180].nic.mac1609_4 	DroppedPacketsInMac 	0
scalar MyScenario.node[180].nic.mac1609_4 	TooLittleTime 	0
scalar MyScenario.node[180].nic.mac1609_4 	TimesIntoBackoff 	0
scalar MyScenario.node[180].nic.mac1609_4 	SlotsBackoff 	0
scalar MyScenario.node[180].nic.mac1609_4 	NumInternalContention 	0
scalar MyScenario.node[180].nic.mac1609_4 	totalBusyTime 	0.000232
scalar MyScenario.node[180].veinsmobility 	startTime 	4
scalar MyScenario.node[180].veinsmobility 	totalTime 	50
scalar MyScenario.node[180].veinsmobility 	stopTime 	55
scalar MyScenario.node[180].veinsmobility 	minSpeed 	2.3670324991224
scalar MyScenario.node[180].veinsmobility 	maxSpeed 	13.863024275191
scalar MyScenario.node[180].veinsmobility 	totalDistance 	565.45416327268
scalar MyScenario.node[180].veinsmobility 	totalCO2Emission 	172.11274546788
scalar MyScenario.node[97].appl 	generatedWSMs 	0
scalar MyScenario.node[97].appl 	receivedWSMs 	0
scalar MyScenario.node[97].appl 	generatedBSMs 	0
scalar MyScenario.node[97].appl 	receivedBSMs 	0
scalar MyScenario.node[97].appl 	generatedWSAs 	0
scalar MyScenario.node[97].appl 	receivedWSAs 	0
scalar MyScenario.node[97].nic.phy80211p 	busyTime 	5.4836363636364e-05
scalar MyScenario.node[97].nic.mac1609_4 	ReceivedUnicastPackets 	0
scalar MyScenario.node[97].nic.mac1609_4 	ReceivedBroadcasts 	0
scalar MyScenario.node[97].nic.mac1609_4 	SentPackets 	0
scalar MyScenario.node[97].nic.mac1609_4 	SNIRLostPackets 	13
scalar MyScenario.node[97].nic.mac1609_4 	RXTXLostPackets 	0
scalar MyScenario.node[97].nic.mac1609_4 	TotalLostPackets 	13
scalar MyScenario.node[97].nic.mac1609_4 	DroppedPacketsInMac 	0
scalar MyScenario.node[97].nic.mac1609_4 	TooLittleTime 	0
scalar MyScenario.node[97].nic.mac1609_4 	TimesIntoBackoff 	0
scalar MyScenario.node[97].nic.mac1609_4 	SlotsBackoff 	0
scalar MyScenario.node[97].nic.mac1609_4 	NumInternalContention 	0
scalar MyScenario.node[97].nic.mac1609_4 	totalBusyTime 	0.000464
scalar MyScenario.node[97].veinsmobility 	startTime 	1
scalar MyScenario.node[97].veinsmobility 	totalTime 	54
scalar MyScenario.node[97].veinsmobility 	stopTime 	56
scalar MyScenario.node[97].veinsmobility 	minSpeed 	1.48425753564e-05
scalar MyScenario.node[97].veinsmobility 	maxSpeed 	13.897644963209
scalar MyScenario.node[97].veinsmobility 	totalDistance 	476.9354945453
scalar MyScenario.node[97].veinsmobility 	totalCO2Emission 	164.85020159394
scalar MyScenario.node[34].appl 	generatedWSMs 	1
scalar MyScenario.node[34].appl 	receivedWSMs 	1
scalar MyScenario.node[34].appl 	generatedBSMs 	0
scalar MyScenario.node[34].appl 	receivedBSMs 	0
scalar MyScenario.node[34].appl 	generatedWSAs 	0
scalar MyScenario.node[34].appl 	receivedWSAs 	0
scalar MyScenario.node[34].nic.phy80211p 	busyTime 	4.2181818181818e-05
scalar MyScenario.node[34].nic.mac1609_4 	ReceivedUnicastPackets 	0
scalar MyScenario.node[34].nic.mac1609_4 	ReceivedBroadcasts 	1
scalar MyScenario.node[34].nic.mac1609_4 	SentPackets 	1
scalar MyScenario.node[34].nic.mac1609_4 	SNIRLostPackets 	9
scalar MyScenario.node[34].nic.mac1609_4 	RXTXLostPackets 	13
scalar MyScenario.node[34].nic.mac1609_4 	TotalLostPackets 	22
scalar MyScenario.node[34].nic.mac1609_4 	DroppedPacketsInMac 	0
scalar MyScenario.node[34].nic.mac1609_4 	TooLittleTime 	0
scalar MyScenario.node[34].nic.mac1609_4 	TimesIntoBackoff 	1
scalar MyScenario.node[34].nic.mac1609_4 	SlotsBackoff 	0
scalar MyScenario.node[34].nic.mac1609_4 	NumInternalContention 	0
scalar MyScenario.node[34].nic.mac1609_4 	totalBusyTime 	0.000929037928
scalar MyScenario.node[34].veinsmobility 	startTime 	1
scalar MyScenario.node[34].veinsmobility 	totalTime 	54
scalar MyScenario.node[34].veinsmobility 	stopTime 	56
scalar MyScenario.node[34].veinsmobility 	minSpeed 	2.1414960791532e-12
scalar MyScenario.node[34].veinsmobility 	maxSpeed 	13.802927288041
scalar MyScenario.node[34].veinsmobility 	totalDistance 	368.96514396311
scalar MyScenario.node[34].veinsmobility 	totalCO2Emission 	149.09785775708
scalar MyScenario.node[161].appl 	generatedWSMs 	0
scalar MyScenario.node[161].appl 	receivedWSMs 	0
scalar MyScenario.node[161].appl 	generatedBSMs 	0
scalar MyScenario.node[161].appl 	receivedBSMs 	0
scalar MyScenario.node[161].appl 	generatedWSAs 	0
scalar MyScenario.node[161].appl 	receivedWSAs 	0
scalar MyScenario.node[161].nic.phy80211p 	busyTime 	0
scalar MyScenario.node[161].nic.mac1609_4 	ReceivedUnicastPackets 	0
scalar MyScenario.node[161].nic.mac1609_4 	ReceivedBroadcasts 	0
scalar MyScenario.node[161].nic.mac1609_4 	SentPackets 	0
scalar MyScenario.node[161].nic.mac1609_4 	SNIRLostPackets 	0
scalar MyScenario.node[161].nic.mac1609_4 	RXTXLostPackets 	0
scalar MyScenario.node[161].nic.mac1609_4 	TotalLostPackets 	0
scalar MyScenario.node[161].nic.mac1609_4 	DroppedPacketsInMac 	0
scalar MyScenario.node[161].nic.mac1609_4 	TooLittleTime 	0
scalar MyScenario.node[161].nic.mac1609_4 	TimesIntoBackoff 	0
scalar MyScenario.node[161].nic.mac1609_4 	SlotsBackoff 	0
scalar MyScenario.node[161].nic.mac1609_4 	NumInternalContention 	0
scalar MyScenario.node[161].nic.mac1609_4 	totalBusyTime 	0
scalar MyScenario.node[161].veinsmobility 	startTime 	4
scalar MyScenario.node[161].veinsmobility 	totalTime 	51
scalar MyScenario.node[161].veinsmobility 	stopTime 	56
scalar MyScenario.node[161].veinsmobility 	minSpeed 	2.1324043053668
scalar MyScenario.node[161].veinsmobility 	maxSpeed 	13.674181232671
scalar MyScenario.node[161].veinsmobility 	totalDistance 	575.743274598
scalar MyScenario.node[161].veinsmobility 	totalCO2Emission 	170.2979750194
scalar MyScenario.node[36].appl 	generatedWSMs 	1
scalar MyScenario.node[36].appl 	receivedWSMs 	1
scalar MyScenario.node[36].appl 	generatedBSMs 	0
scalar MyScenario.node[36].appl 	receivedBSMs 	0
scalar MyScenario.node[36].appl 	generatedWSAs 	0
scalar MyScenario.node[36].appl 	receivedWSAs 	0
scalar MyScenario.node[36].nic.phy80211p 	busyTime 	5.3857142857143e-05
scalar MyScenario.node[36].nic.mac1609_4 	ReceivedUnicastPackets 	0
scalar MyScenario.node[36].nic.mac1609_4 	ReceivedBroadcasts 	1
scalar MyScenario.node[36].nic.mac1609_4 	SentPackets 	1
scalar MyScenario.node[36].nic.mac1609_4 	SNIRLostPackets 	12
scalar MyScenario.node[36].nic.mac1609_4 	RXTXLostPackets 	0
scalar MyScenario.node[36].nic.mac1609_4 	TotalLostPackets 	12
scalar MyScenario.node[36].nic.mac1609_4 	DroppedPacketsInMac 	0
scalar MyScenario.node[36].nic.mac1609_4 	TooLittleTime 	0
scalar MyScenario.node[36].nic.mac1609_4 	TimesIntoBackoff 	1
scalar MyScenario.node[36].nic.mac1609_4 	SlotsBackoff 	2
scalar MyScenario.node[36].nic.mac1609_4 	NumInternalContention 	0
scalar MyScenario.node[36].nic.mac1609_4 	totalBusyTime 	0.000929
scalar MyScenario.node[36].veinsmobility 	startTime 	1
scalar MyScenario.node[36].veinsmobility 	totalTime 	55
scalar MyScenario.node[36].veinsmobility 	stopTime 	57
scalar MyScenario.node[36].veinsmobility 	minSpeed 	0.03109013576732
scalar MyScenario.node[36].veinsmobility 	maxSpeed 	13.810303332633
scalar MyScenario.node[36].veinsmobility 	totalDistance 	565.98719713139
scalar MyScenario.node[36].veinsmobility 	totalCO2Emission 	179.19424247626
scalar MyScenario.node[144].appl 	generatedWSMs 	1
scalar MyScenario.node[144].appl 	receivedWSMs 	1
scalar MyScenario.node[144].appl 	generatedBSMs 	0
scalar MyScenario.node[144].appl 	receivedBSMs 	0
scalar MyScenario.node[144].appl 	generatedWSAs 	0
scalar MyScenario.node[144].appl 	receivedWSAs 	0
scalar MyScenario.node[144].nic.phy80211p 	busyTime 	3.7285714285714e-05
scalar MyScenario.node[144].nic.mac1609_4 	ReceivedUnicastPackets 	0
scalar MyScenario.node[144].nic.mac1609_4 	ReceivedBroadcasts 	1
scalar MyScenario.node[144].nic.mac1609_4 	SentPackets 	1
scalar MyScenario.node[144].nic.mac1609_4 	SNIRLostPackets 	8
scalar MyScenario.node[144].nic.mac1609_4 	RXTXLostPackets 	8
scalar MyScenario.node[144].nic.mac1609_4 	TotalLostPackets 	16
scalar MyScenario.node[144].nic.mac1609_4 	DroppedPacketsInMac 	0
scalar MyScenario.node[144].nic.mac1609_4 	TooLittleTime 	0
scalar MyScenario.node[144].nic.mac1609_4 	TimesIntoBackoff 	1
scalar MyScenario.node[144].nic.mac1609_4 	SlotsBackoff 	3
scalar MyScenario.node[144].nic.mac1609_4 	NumInternalContention 	0
scalar MyScenario.node[144].nic.mac1609_4 	totalBusyTime 	0.00139302619
scalar MyScenario.node[144].veinsmobility 	startTime 	1
scalar MyScenario.node[144].veinsmobility 	totalTime 	55
scalar MyScenario.node[144].veinsmobility 	stopTime 	57
scalar MyScenario.node[144].veinsmobility 	minSpeed 	0.013495579140089
scalar MyScenario.node[144].veinsmobility 	maxSpeed 	13.884936196893
scalar MyScenario.node[144].veinsmobility 	totalDistance 	552.62144264687
scalar MyScenario.node[144].veinsmobility 	totalCO2Emission 	186.25582912326
scalar MyScenario.node[107].appl 	generatedWSMs 	0
scalar MyScenario.node[107].appl 	receivedWSMs 	0
scalar MyScenario.node[107].appl 	generatedBSMs 	0
scalar MyScenario.node[107].appl 	receivedBSMs 	0
scalar MyScenario.node[107].appl 	generatedWSAs 	0
scalar MyScenario.node[107].appl 	receivedWSAs 	0
scalar MyScenario.node[107].nic.phy80211p 	busyTime 	1.6571428571429e-05
scalar MyScenario.node[107].nic.mac1609_4 	ReceivedUnicastPackets 	0
scalar MyScenario.node[107].nic.mac1609_4 	ReceivedBroadcasts 	0
scalar MyScenario.node[107].nic.mac1609_4 	SentPackets 	0
scalar MyScenario.node[107].nic.mac1609_4 	SNIRLostPackets 	4
scalar MyScenario.node[107].nic.mac1609_4 	RXTXLostPackets 	0
scalar MyScenario.node[107].nic.mac1609_4 	TotalLostPackets 	4
scalar MyScenario.node[107].nic.mac1609_4 	DroppedPacketsInMac 	0
scalar MyScenario.node[107].nic.mac1609_4 	TooLittleTime 	0
scalar MyScenario.node[107].nic.mac1609_4 	TimesIntoBackoff 	0
scalar MyScenario.node[107].nic.mac1609_4 	SlotsBackoff 	0
scalar MyScenario.node[107].nic.mac1609_4 	NumInternalContention 	0
scalar MyScenario.node[107].nic.mac1609_4 	totalBusyTime 	0.000464
scalar MyScenario.node[107].veinsmobility 	startTime 	1
scalar MyScenario.node[107].veinsmobility 	totalTime 	55
scalar MyScenario.node[107].veinsmobility 	stopTime 	57
scalar MyScenario.node[107].veinsmobility 	minSpeed 	1.6013524264563
scalar MyScenario.node[107].veinsmobility 	maxSpeed 	13.868100601668
scalar MyScenario.node[107].veinsmobility 	totalDistance 	661.74472961189
scalar MyScenario.node[107].veinsmobility 	totalCO2Emission 	155.42431525634
scalar MyScenario.node[126].appl 	generatedWSMs 	1
scalar MyScenario.node[126].appl 	receivedWSMs 	20
scalar MyScenario.node[126].appl 	generatedBSMs 	0
scalar MyScenario.node[126].appl 	receivedBSMs 	0
scalar MyScenario.node[126].appl 	generatedWSAs 	0
scalar MyScenario.node[126].appl 	receivedWSAs 	0
scalar MyScenario.node[126].nic.phy80211p 	busyTime 	0.00021571929824561
scalar MyScenario.node[126].nic.mac1609_4 	ReceivedUnicastPackets 	0
scalar MyScenario.node[126].nic.mac1609_4 	ReceivedBroadcasts 	20
scalar MyScenario.node[126].nic.mac1609_4 	SentPackets 	1
scalar MyScenario.node[126].nic.mac1609_4 	SNIRLostPackets 	33
scalar MyScenario.node[126].nic.mac1609_4 	RXTXLostPackets 	12
scalar MyScenario.node[126].nic.mac1609_4 	TotalLostPackets 	45
scalar MyScenario.node[126].nic.mac1609_4 	DroppedPacketsInMac 	0
scalar MyScenario.node[126].nic.mac1609_4 	TooLittleTime 	0
scalar MyScenario.node[126].nic.mac1609_4 	TimesIntoBackoff 	1
scalar MyScenario.node[126].nic.mac1609_4 	SlotsBackoff 	2
scalar MyScenario.node[126].nic.mac1609_4 	NumInternalContention 	0
scalar MyScenario.node[126].nic.mac1609_4 	totalBusyTime 	0.00556900712
scalar MyScenario.node[126].veinsmobility 	startTime 	1
scalar MyScenario.node[126].veinsmobility 	totalTime 	56
scalar MyScenario.node[126].veinsmobility 	stopTime 	58
scalar MyScenario.node[126].veinsmobility 	minSpeed 	1.9790786498692
scalar MyScenario.node[126].veinsmobility 	maxSpeed 	13.87876164203
scalar MyScenario.node[126].veinsmobility 	totalDistance 	665.50250006662
scalar MyScenario.node[126].veinsmobility 	totalCO2Emission 	161.06338766758
scalar MyScenario.node[70].appl 	generatedWSMs 	1
scalar MyScenario.node[70].appl 	receivedWSMs 	6
scalar MyScenario.node[70].appl 	generatedBSMs 	0
scalar MyScenario.node[70].appl 	receivedBSMs 	0
scalar MyScenario.node[70].appl 	generatedWSAs 	0
scalar MyScenario.node[70].appl 	receivedWSAs 	0
scalar MyScenario.node[70].nic.phy80211p 	busyTime 	8.5473684210526e-05
scalar MyScenario.node[70].nic.mac1609_4 	ReceivedUnicastPackets 	0
scalar MyScenario.node[70].nic.mac1609_4 	ReceivedBroadcasts 	6
scalar MyScenario.node[70].nic.mac1609_4 	SentPackets 	1
scalar MyScenario.node[70].nic.mac1609_4 	SNIRLostPackets 	15
scalar MyScenario.node[70].nic.mac1609_4 	RXTXLostPackets 	12
scalar MyScenario.node[70].nic.mac1609_4 	TotalLostPackets 	27
scalar MyScenario.node[70].nic.mac1609_4 	DroppedPacketsInMac 	0
scalar MyScenario.node[70].nic.mac1609_4 	TooLittleTime 	0
scalar MyScenario.node[70].nic.mac1609_4 	TimesIntoBackoff 	1
scalar MyScenario.node[70].nic.mac1609_4 	SlotsBackoff 	2
scalar MyScenario.node[70].nic.mac1609_4 	NumInternalContention 	0
scalar MyScenario.node[70].nic.mac1609_4 	totalBusyTime 	0.003017010018
scalar MyScenario.node[70].veinsmobility 	startTime 	1
scalar MyScenario.node[70].veinsmobility 	totalTime 	56
scalar MyScenario.node[70].veinsmobility 	stopTime 	58
scalar MyScenario.node[70].veinsmobility 	minSpeed 	0.0097995309329653
scalar MyScenario.node[70].veinsmobility 	maxSpeed 	13.773483503982
scalar MyScenario.node[70].veinsmobility 	totalDistance 	563.96706094543
scalar MyScenario.node[70].veinsmobility 	totalCO2Emission 	170.04394226898
scalar MyScenario.node[169].appl 	generatedWSMs 	1
scalar MyScenario.node[169].appl 	receivedWSMs 	9
scalar MyScenario.node[169].appl 	generatedBSMs 	0
scalar MyScenario.node[169].appl 	receivedBSMs 	0
scalar MyScenario.node[169].appl 	generatedWSAs 	0
scalar MyScenario.node[169].appl 	receivedWSAs 	0
scalar MyScenario.node[169].nic.phy80211p 	busyTime 	0.00010311111111111
scalar MyScenario.node[169].nic.mac1609_4 	ReceivedUnicastPackets 	0
scalar MyScenario.node[169].nic.mac1609_4 	ReceivedBroadcasts 	9
scalar MyScenario.node[169].nic.mac1609_4 	SentPackets 	1
scalar MyScenario.node[169].nic.mac1609_4 	SNIRLostPackets 	15
scalar MyScenario.node[169].nic.mac1609_4 	RXTXLostPackets 	12
scalar MyScenario.node[169].nic.mac1609_4 	TotalLostPackets 	27
scalar MyScenario.node[169].nic.mac1609_4 	DroppedPacketsInMac 	0
scalar MyScenario.node[169].nic.mac1609_4 	TooLittleTime 	0
scalar MyScenario.node[169].nic.mac1609_4 	TimesIntoBackoff 	1
scalar MyScenario.node[169].nic.mac1609_4 	SlotsBackoff 	2
scalar MyScenario.node[169].nic.mac1609_4 	NumInternalContention 	0
scalar MyScenario.node[169].nic.mac1609_4 	totalBusyTime 	0.00324911337
scalar MyScenario.node[169].veinsmobility 	startTime 	4
scalar MyScenario.node[169].veinsmobility 	totalTime 	53
scalar MyScenario.node[169].veinsmobility 	stopTime 	58
scalar MyScenario.node[169].veinsmobility 	minSpeed 	1.5852834012114
scalar MyScenario.node[169].veinsmobility 	maxSpeed 	13.889548946498
scalar MyScenario.node[169].veinsmobility 	totalDistance 	561.86964808522
scalar MyScenario.node[169].veinsmobility 	totalCO2Emission 	164.34008523163
scalar MyScenario.node[103].appl 	generatedWSMs 	1
scalar MyScenario.node[103].appl 	receivedWSMs 	10
scalar MyScenario.node[103].appl 	generatedBSMs 	0
scalar MyScenario.node[103].appl 	receivedBSMs 	0
scalar MyScenario.node[103].appl 	generatedWSAs 	0
scalar MyScenario.node[103].appl 	receivedWSAs 	0
scalar MyScenario.node[103].nic.phy80211p 	busyTime 	7.6e-05
scalar MyScenario.node[103].nic.mac1609_4 	ReceivedUnicastPackets 	0
[...]
scalar MyScenario.node[1].nic.mac1609_4 	RXTXLostPackets 	5
scalar MyScenario.node[1].nic.mac1609_4 	TotalLostPackets 	24
scalar MyScenario.node[1].nic.mac1609_4 	DroppedPacketsInMac 	0
scalar MyScenario.node[1].nic.mac1609_4 	TooLittleTime 	0
scalar MyScenario.node[1].nic.mac1609_4 	TimesIntoBackoff 	1
scalar MyScenario.node[1].nic.mac1609_4 	SlotsBackoff 	3
scalar MyScenario.node[1].nic.mac1609_4 	NumInternalContention 	0
scalar MyScenario.node[1].nic.mac1609_4 	totalBusyTime 	0.001857
scalar MyScenario.node[1].veinsmobility 	startTime 	1
scalar MyScenario.node[1].veinsmobility 	totalTime 	128
scalar MyScenario.node[1].veinsmobility 	stopTime 	130
scalar MyScenario.node[1].veinsmobility 	minSpeed 	0.018283890545718
scalar MyScenario.node[1].veinsmobility 	maxSpeed 	13.897180076037
scalar MyScenario.node[1].veinsmobility 	totalDistance 	1361.122190196
scalar MyScenario.node[1].veinsmobility 	totalCO2Emission 	382.08824173666
scalar MyScenario.node[176].appl 	generatedWSMs 	1
scalar MyScenario.node[176].appl 	receivedWSMs 	12
scalar MyScenario.node[176].appl 	generatedBSMs 	0
scalar MyScenario.node[176].appl 	receivedBSMs 	0
scalar MyScenario.node[176].appl 	generatedWSAs 	0
scalar MyScenario.node[176].appl 	receivedWSAs 	0
scalar MyScenario.node[176].nic.phy80211p 	busyTime 	5.2976377952756e-05
scalar MyScenario.node[176].nic.mac1609_4 	ReceivedUnicastPackets 	0
scalar MyScenario.node[176].nic.mac1609_4 	ReceivedBroadcasts 	12
scalar MyScenario.node[176].nic.mac1609_4 	SentPackets 	1
scalar MyScenario.node[176].nic.mac1609_4 	SNIRLostPackets 	17
scalar MyScenario.node[176].nic.mac1609_4 	RXTXLostPackets 	0
scalar MyScenario.node[176].nic.mac1609_4 	TotalLostPackets 	17
scalar MyScenario.node[176].nic.mac1609_4 	DroppedPacketsInMac 	0
scalar MyScenario.node[176].nic.mac1609_4 	TooLittleTime 	0
scalar MyScenario.node[176].nic.mac1609_4 	TimesIntoBackoff 	1
scalar MyScenario.node[176].nic.mac1609_4 	SlotsBackoff 	0
scalar MyScenario.node[176].nic.mac1609_4 	NumInternalContention 	0
scalar MyScenario.node[176].nic.mac1609_4 	totalBusyTime 	0.004177
scalar MyScenario.node[176].veinsmobility 	startTime 	4
scalar MyScenario.node[176].veinsmobility 	totalTime 	126
scalar MyScenario.node[176].veinsmobility 	stopTime 	131
scalar MyScenario.node[176].veinsmobility 	minSpeed 	0.00021873034640838
scalar MyScenario.node[176].veinsmobility 	maxSpeed 	13.862701073964
scalar MyScenario.node[176].veinsmobility 	totalDistance 	1275.9132414191
scalar MyScenario.node[176].veinsmobility 	totalCO2Emission 	396.06077812504
scalar MyScenario.node[110].appl 	generatedWSMs 	0
scalar MyScenario.node[110].appl 	receivedWSMs 	0
scalar MyScenario.node[110].appl 	generatedBSMs 	0
scalar MyScenario.node[110].appl 	receivedBSMs 	0
scalar MyScenario.node[110].appl 	generatedWSAs 	0
scalar MyScenario.node[110].appl 	receivedWSAs 	0
scalar MyScenario.node[110].nic.phy80211p 	busyTime 	3.5419847328244e-06
scalar MyScenario.node[110].nic.mac1609_4 	ReceivedUnicastPackets 	0
scalar MyScenario.node[110].nic.mac1609_4 	ReceivedBroadcasts 	0
scalar MyScenario.node[110].nic.mac1609_4 	SentPackets 	0
scalar MyScenario.node[110].nic.mac1609_4 	SNIRLostPackets 	2
scalar MyScenario.node[110].nic.mac1609_4 	RXTXLostPackets 	0
scalar MyScenario.node[110].nic.mac1609_4 	TotalLostPackets 	2
scalar MyScenario.node[110].nic.mac1609_4 	DroppedPacketsInMac 	0
scalar MyScenario.node[110].nic.mac1609_4 	TooLittleTime 	0
scalar MyScenario.node[110].nic.mac1609_4 	TimesIntoBackoff 	0
scalar MyScenario.node[110].nic.mac1609_4 	SlotsBackoff 	0
scalar MyScenario.node[110].nic.mac1609_4 	NumInternalContention 	0
scalar MyScenario.node[110].nic.mac1609_4 	totalBusyTime 	0.000232
scalar MyScenario.node[110].veinsmobility 	startTime 	1
scalar MyScenario.node[110].veinsmobility 	totalTime 	130
scalar MyScenario.node[110].veinsmobility 	stopTime 	132
scalar MyScenario.node[110].veinsmobility 	minSpeed 	0.00049368715413595
scalar MyScenario.node[110].veinsmobility 	maxSpeed 	13.858352835663
scalar MyScenario.node[110].veinsmobility 	totalDistance 	1260.7954767999
scalar MyScenario.node[110].veinsmobility 	totalCO2Emission 	424.39326555579
scalar MyScenario.node[174].appl 	generatedWSMs 	1
scalar MyScenario.node[174].appl 	receivedWSMs 	21
scalar MyScenario.node[174].appl 	generatedBSMs 	0
scalar MyScenario.node[174].appl 	receivedBSMs 	0
scalar MyScenario.node[174].appl 	generatedWSAs 	0
scalar MyScenario.node[174].appl 	receivedWSAs 	0
scalar MyScenario.node[174].nic.phy80211p 	busyTime 	8.1465648854962e-05
scalar MyScenario.node[174].nic.mac1609_4 	ReceivedUnicastPackets 	0
scalar MyScenario.node[174].nic.mac1609_4 	ReceivedBroadcasts 	21
scalar MyScenario.node[174].nic.mac1609_4 	SentPackets 	1
scalar MyScenario.node[174].nic.mac1609_4 	SNIRLostPackets 	25
scalar MyScenario.node[174].nic.mac1609_4 	RXTXLostPackets 	5
scalar MyScenario.node[174].nic.mac1609_4 	TotalLostPackets 	30
scalar MyScenario.node[174].nic.mac1609_4 	DroppedPacketsInMac 	0
scalar MyScenario.node[174].nic.mac1609_4 	TooLittleTime 	0
scalar MyScenario.node[174].nic.mac1609_4 	TimesIntoBackoff 	1
scalar MyScenario.node[174].nic.mac1609_4 	SlotsBackoff 	0
scalar MyScenario.node[174].nic.mac1609_4 	NumInternalContention 	0
scalar MyScenario.node[174].nic.mac1609_4 	totalBusyTime 	0.006265
scalar MyScenario.node[174].veinsmobility 	startTime 	4
scalar MyScenario.node[174].veinsmobility 	totalTime 	130
scalar MyScenario.node[174].veinsmobility 	stopTime 	135
scalar MyScenario.node[174].veinsmobility 	minSpeed 	0
scalar MyScenario.node[174].veinsmobility 	maxSpeed 	13.886294533196
scalar MyScenario.node[174].veinsmobility 	totalDistance 	1071.8712625341
scalar MyScenario.node[174].veinsmobility 	totalCO2Emission 	378.22182758438
scalar MyScenario.node[166].appl 	generatedWSMs 	1
scalar MyScenario.node[166].appl 	receivedWSMs 	23
scalar MyScenario.node[166].appl 	generatedBSMs 	0
scalar MyScenario.node[166].appl 	receivedBSMs 	0
scalar MyScenario.node[166].appl 	generatedWSAs 	0
scalar MyScenario.node[166].appl 	receivedWSAs 	0
scalar MyScenario.node[166].nic.phy80211p 	busyTime 	7.2610687022901e-05
scalar MyScenario.node[166].nic.mac1609_4 	ReceivedUnicastPackets 	0
scalar MyScenario.node[166].nic.mac1609_4 	ReceivedBroadcasts 	23
scalar MyScenario.node[166].nic.mac1609_4 	SentPackets 	1
scalar MyScenario.node[166].nic.mac1609_4 	SNIRLostPackets 	18
scalar MyScenario.node[166].nic.mac1609_4 	RXTXLostPackets 	0
scalar MyScenario.node[166].nic.mac1609_4 	TotalLostPackets 	18
scalar MyScenario.node[166].nic.mac1609_4 	DroppedPacketsInMac 	0
scalar MyScenario.node[166].nic.mac1609_4 	TooLittleTime 	0
scalar MyScenario.node[166].nic.mac1609_4 	TimesIntoBackoff 	1
scalar MyScenario.node[166].nic.mac1609_4 	SlotsBackoff 	1
scalar MyScenario.node[166].nic.mac1609_4 	NumInternalContention 	0
scalar MyScenario.node[166].nic.mac1609_4 	totalBusyTime 	0.007193
scalar MyScenario.node[166].veinsmobility 	startTime 	4
scalar MyScenario.node[166].veinsmobility 	totalTime 	130
scalar MyScenario.node[166].veinsmobility 	stopTime 	135
scalar MyScenario.node[166].veinsmobility 	minSpeed 	2.5130323488265
scalar MyScenario.node[166].veinsmobility 	maxSpeed 	13.898841405148
scalar MyScenario.node[166].veinsmobility 	totalDistance 	1566.2213172283
scalar MyScenario.node[166].veinsmobility 	totalCO2Emission 	397.16230701369
scalar MyScenario.node[42].appl 	generatedWSMs 	0
scalar MyScenario.node[42].appl 	receivedWSMs 	0
scalar MyScenario.node[42].appl 	generatedBSMs 	0
scalar MyScenario.node[42].appl 	receivedBSMs 	0
scalar MyScenario.node[42].appl 	generatedWSAs 	0
scalar MyScenario.node[42].appl 	receivedWSAs 	0
scalar MyScenario.node[42].nic.phy80211p 	busyTime 	3.437037037037e-06
scalar MyScenario.node[42].nic.mac1609_4 	ReceivedUnicastPackets 	0
scalar MyScenario.node[42].nic.mac1609_4 	ReceivedBroadcasts 	0
scalar MyScenario.node[42].nic.mac1609_4 	SentPackets 	0
scalar MyScenario.node[42].nic.mac1609_4 	SNIRLostPackets 	2
scalar MyScenario.node[42].nic.mac1609_4 	RXTXLostPackets 	0
scalar MyScenario.node[42].nic.mac1609_4 	TotalLostPackets 	2
scalar MyScenario.node[42].nic.mac1609_4 	DroppedPacketsInMac 	0
scalar MyScenario.node[42].nic.mac1609_4 	TooLittleTime 	0
scalar MyScenario.node[42].nic.mac1609_4 	TimesIntoBackoff 	0
scalar MyScenario.node[42].nic.mac1609_4 	SlotsBackoff 	0
scalar MyScenario.node[42].nic.mac1609_4 	NumInternalContention 	0
scalar MyScenario.node[42].nic.mac1609_4 	totalBusyTime 	0.000232
scalar MyScenario.node[42].veinsmobility 	startTime 	1
scalar MyScenario.node[42].veinsmobility 	totalTime 	134
scalar MyScenario.node[42].veinsmobility 	stopTime 	136
scalar MyScenario.node[42].veinsmobility 	minSpeed 	0.0014739139338846
scalar MyScenario.node[42].veinsmobility 	maxSpeed 	13.895264545805
scalar MyScenario.node[42].veinsmobility 	totalDistance 	1266.0895191834
scalar MyScenario.node[42].veinsmobility 	totalCO2Emission 	414.3085453697
scalar MyScenario.node[2].appl 	generatedWSMs 	1
scalar MyScenario.node[2].appl 	receivedWSMs 	1
scalar MyScenario.node[2].appl 	generatedBSMs 	0
scalar MyScenario.node[2].appl 	receivedBSMs 	0
scalar MyScenario.node[2].appl 	generatedWSAs 	0
scalar MyScenario.node[2].appl 	receivedWSAs 	0
scalar MyScenario.node[2].nic.phy80211p 	busyTime 	5.0434782608696e-06
scalar MyScenario.node[2].nic.mac1609_4 	ReceivedUnicastPackets 	0
scalar MyScenario.node[2].nic.mac1609_4 	ReceivedBroadcasts 	1
scalar MyScenario.node[2].nic.mac1609_4 	SentPackets 	1
scalar MyScenario.node[2].nic.mac1609_4 	SNIRLostPackets 	2
scalar MyScenario.node[2].nic.mac1609_4 	RXTXLostPackets 	3
scalar MyScenario.node[2].nic.mac1609_4 	TotalLostPackets 	5
scalar MyScenario.node[2].nic.mac1609_4 	DroppedPacketsInMac 	0
scalar MyScenario.node[2].nic.mac1609_4 	TooLittleTime 	0
scalar MyScenario.node[2].nic.mac1609_4 	TimesIntoBackoff 	1
scalar MyScenario.node[2].nic.mac1609_4 	SlotsBackoff 	3
scalar MyScenario.node[2].nic.mac1609_4 	NumInternalContention 	0
scalar MyScenario.node[2].nic.mac1609_4 	totalBusyTime 	0.000697
scalar MyScenario.node[2].veinsmobility 	startTime 	1
scalar MyScenario.node[2].veinsmobility 	totalTime 	137
scalar MyScenario.node[2].veinsmobility 	stopTime 	139
scalar MyScenario.node[2].veinsmobility 	minSpeed 	6.8169546213984e-13
scalar MyScenario.node[2].veinsmobility 	maxSpeed 	13.883866299642
scalar MyScenario.node[2].veinsmobility 	totalDistance 	1276.0336966222
scalar MyScenario.node[2].veinsmobility 	totalCO2Emission 	448.26303868468
scalar MyScenario.node[184].appl 	generatedWSMs 	1
scalar MyScenario.node[184].appl 	receivedWSMs 	18
scalar MyScenario.node[184].appl 	generatedBSMs 	0
scalar MyScenario.node[184].appl 	receivedBSMs 	0
scalar MyScenario.node[184].appl 	generatedWSAs 	0
scalar MyScenario.node[184].appl 	receivedWSAs 	0
scalar MyScenario.node[184].nic.phy80211p 	busyTime 	5.2882352941176e-05
scalar MyScenario.node[184].nic.mac1609_4 	ReceivedUnicastPackets 	0
scalar MyScenario.node[184].nic.mac1609_4 	ReceivedBroadcasts 	18
scalar MyScenario.node[184].nic.mac1609_4 	SentPackets 	1
scalar MyScenario.node[184].nic.mac1609_4 	SNIRLostPackets 	13
scalar MyScenario.node[184].nic.mac1609_4 	RXTXLostPackets 	9
scalar MyScenario.node[184].nic.mac1609_4 	TotalLostPackets 	22
scalar MyScenario.node[184].nic.mac1609_4 	DroppedPacketsInMac 	0
scalar MyScenario.node[184].nic.mac1609_4 	TooLittleTime 	0
scalar MyScenario.node[184].nic.mac1609_4 	TimesIntoBackoff 	1
scalar MyScenario.node[184].nic.mac1609_4 	SlotsBackoff 	2
scalar MyScenario.node[184].nic.mac1609_4 	NumInternalContention 	0
scalar MyScenario.node[184].nic.mac1609_4 	totalBusyTime 	0.005569041627
scalar MyScenario.node[184].veinsmobility 	startTime 	4
scalar MyScenario.node[184].veinsmobility 	totalTime 	135
scalar MyScenario.node[184].veinsmobility 	stopTime 	140
scalar MyScenario.node[184].veinsmobility 	minSpeed 	1.8258953498953e-07
scalar MyScenario.node[184].veinsmobility 	maxSpeed 	13.872944509378
scalar MyScenario.node[184].veinsmobility 	totalDistance 	1169.2203646823
scalar MyScenario.node[184].veinsmobility 	totalCO2Emission 	423.39738303727
scalar MyScenario.node[130].appl 	generatedWSMs 	1
scalar MyScenario.node[130].appl 	receivedWSMs 	16
scalar MyScenario.node[130].appl 	generatedBSMs 	0
scalar MyScenario.node[130].appl 	receivedBSMs 	0
scalar MyScenario.node[130].appl 	generatedWSAs 	0
scalar MyScenario.node[130].appl 	receivedWSAs 	0
scalar MyScenario.node[130].nic.phy80211p 	busyTime 	6.9106382978723e-05
scalar MyScenario.node[130].nic.mac1609_4 	ReceivedUnicastPackets 	0
scalar MyScenario.node[130].nic.mac1609_4 	ReceivedBroadcasts 	16
scalar MyScenario.node[130].nic.mac1609_4 	SentPackets 	1
scalar MyScenario.node[130].nic.mac1609_4 	SNIRLostPackets 	26
scalar MyScenario.node[130].nic.mac1609_4 	RXTXLostPackets 	9
scalar MyScenario.node[130].nic.mac1609_4 	TotalLostPackets 	35
scalar MyScenario.node[130].nic.mac1609_4 	DroppedPacketsInMac 	0
scalar MyScenario.node[130].nic.mac1609_4 	TooLittleTime 	0
scalar MyScenario.node[130].nic.mac1609_4 	TimesIntoBackoff 	1
scalar MyScenario.node[130].nic.mac1609_4 	SlotsBackoff 	0
scalar MyScenario.node[130].nic.mac1609_4 	NumInternalContention 	0
scalar MyScenario.node[130].nic.mac1609_4 	totalBusyTime 	0.005337328962
scalar MyScenario.node[130].veinsmobility 	startTime 	1
scalar MyScenario.node[130].veinsmobility 	totalTime 	140
scalar MyScenario.node[130].veinsmobility 	stopTime 	142
scalar MyScenario.node[130].veinsmobility 	minSpeed 	0
scalar MyScenario.node[130].veinsmobility 	maxSpeed 	13.892027852288
scalar MyScenario.node[130].veinsmobility 	totalDistance 	1061.3634432662
scalar MyScenario.node[130].veinsmobility 	totalCO2Emission 	400.26468011061
scalar MyScenario.node[99].appl 	generatedWSMs 	0
scalar MyScenario.node[99].appl 	receivedWSMs 	0
scalar MyScenario.node[99].appl 	generatedBSMs 	0
scalar MyScenario.node[99].appl 	receivedBSMs 	0
scalar MyScenario.node[99].appl 	generatedWSAs 	0
scalar MyScenario.node[99].appl 	receivedWSAs 	0
scalar MyScenario.node[99].nic.phy80211p 	busyTime 	6.4895104895105e-06
scalar MyScenario.node[99].nic.mac1609_4 	ReceivedUnicastPackets 	0
scalar MyScenario.node[99].nic.mac1609_4 	ReceivedBroadcasts 	0
scalar MyScenario.node[99].nic.mac1609_4 	SentPackets 	0
scalar MyScenario.node[99].nic.mac1609_4 	SNIRLostPackets 	4
scalar MyScenario.node[99].nic.mac1609_4 	RXTXLostPackets 	0
scalar MyScenario.node[99].nic.mac1609_4 	TotalLostPackets 	4
scalar MyScenario.node[99].nic.mac1609_4 	DroppedPacketsInMac 	0
scalar MyScenario.node[99].nic.mac1609_4 	TooLittleTime 	0
scalar MyScenario.node[99].nic.mac1609_4 	TimesIntoBackoff 	0
scalar MyScenario.node[99].nic.mac1609_4 	SlotsBackoff 	0
scalar MyScenario.node[99].nic.mac1609_4 	NumInternalContention 	0
scalar MyScenario.node[99].nic.mac1609_4 	totalBusyTime 	0.000464
scalar MyScenario.node[99].veinsmobility 	startTime 	1
scalar MyScenario.node[99].veinsmobility 	totalTime 	142
scalar MyScenario.node[99].veinsmobility 	stopTime 	144
scalar MyScenario.node[99].veinsmobility 	minSpeed 	0.01960730535704
scalar MyScenario.node[99].veinsmobility 	maxSpeed 	13.894662619126
scalar MyScenario.node[99].veinsmobility 	totalDistance 	1567.256172689
scalar MyScenario.node[99].veinsmobility 	totalCO2Emission 	424.0413107003
scalar MyScenario.node[86].appl 	generatedWSMs 	0
scalar MyScenario.node[86].appl 	receivedWSMs 	0
scalar MyScenario.node[86].appl 	generatedBSMs 	0
scalar MyScenario.node[86].appl 	receivedBSMs 	0
scalar MyScenario.node[86].appl 	generatedWSAs 	0
scalar MyScenario.node[86].appl 	receivedWSAs 	0
scalar MyScenario.node[86].nic.phy80211p 	busyTime 	1.4108108108108e-05
scalar MyScenario.node[86].nic.mac1609_4 	ReceivedUnicastPackets 	0
scalar MyScenario.node[86].nic.mac1609_4 	ReceivedBroadcasts 	0
scalar MyScenario.node[86].nic.mac1609_4 	SentPackets 	0
scalar MyScenario.node[86].nic.mac1609_4 	SNIRLostPackets 	9
scalar MyScenario.node[86].nic.mac1609_4 	RXTXLostPackets 	0
scalar MyScenario.node[86].nic.mac1609_4 	TotalLostPackets 	9
scalar MyScenario.node[86].nic.mac1609_4 	DroppedPacketsInMac 	0
scalar MyScenario.node[86].nic.mac1609_4 	TooLittleTime 	0
scalar MyScenario.node[86].nic.mac1609_4 	TimesIntoBackoff 	0
scalar MyScenario.node[86].nic.mac1609_4 	SlotsBackoff 	0
scalar MyScenario.node[86].nic.mac1609_4 	NumInternalContention 	0
scalar MyScenario.node[86].nic.mac1609_4 	totalBusyTime 	0.000928
scalar MyScenario.node[86].veinsmobility 	startTime 	1
scalar MyScenario.node[86].veinsmobility 	totalTime 	147
scalar MyScenario.node[86].veinsmobility 	stopTime 	149
scalar MyScenario.node[86].veinsmobility 	minSpeed 	0.04335664255802
scalar MyScenario.node[86].veinsmobility 	maxSpeed 	13.887630802323
scalar MyScenario.node[86].veinsmobility 	totalDistance 	1569.2990332968
scalar MyScenario.node[86].veinsmobility 	totalCO2Emission 	464.66165179993
scalar MyScenario.node[48].appl 	generatedWSMs 	1
scalar MyScenario.node[48].appl 	receivedWSMs 	5
scalar MyScenario.node[48].appl 	generatedBSMs 	0
scalar MyScenario.node[48].appl 	receivedBSMs 	0
scalar MyScenario.node[48].appl 	generatedWSAs 	0
scalar MyScenario.node[48].appl 	receivedWSAs 	0
scalar MyScenario.node[48].nic.phy80211p 	busyTime 	1.856e-05
scalar MyScenario.node[48].nic.mac1609_4 	ReceivedUnicastPackets 	0
scalar MyScenario.node[48].nic.mac1609_4 	ReceivedBroadcasts 	5
scalar MyScenario.node[48].nic.mac1609_4 	SentPackets 	1
scalar MyScenario.node[48].nic.mac1609_4 	SNIRLostPackets 	7
scalar MyScenario.node[48].nic.mac1609_4 	RXTXLostPackets 	3
scalar MyScenario.node[48].nic.mac1609_4 	TotalLostPackets 	10
scalar MyScenario.node[48].nic.mac1609_4 	DroppedPacketsInMac 	0
scalar MyScenario.node[48].nic.mac1609_4 	TooLittleTime 	0
scalar MyScenario.node[48].nic.mac1609_4 	TimesIntoBackoff 	1
scalar MyScenario.node[48].nic.mac1609_4 	SlotsBackoff 	1
scalar MyScenario.node[48].nic.mac1609_4 	NumInternalContention 	0
scalar MyScenario.node[48].nic.mac1609_4 	totalBusyTime 	0.002089
scalar MyScenario.node[48].veinsmobility 	startTime 	1
scalar MyScenario.node[48].veinsmobility 	totalTime 	149
scalar MyScenario.node[48].veinsmobility 	stopTime 	151
scalar MyScenario.node[48].veinsmobility 	minSpeed 	1.7062470520467e-14
scalar MyScenario.node[48].veinsmobility 	maxSpeed 	13.897215059772
scalar MyScenario.node[48].veinsmobility 	totalDistance 	1568.0590698391
scalar MyScenario.node[48].veinsmobility 	totalCO2Emission 	376.10532876744
scalar MyScenario.node[193].appl 	generatedWSMs 	1
scalar MyScenario.node[193].appl 	receivedWSMs 	6
scalar MyScenario.node[193].appl 	generatedBSMs 	0
scalar MyScenario.node[193].appl 	receivedBSMs 	0
scalar MyScenario.node[193].appl 	generatedWSAs 	0
scalar MyScenario.node[193].appl 	receivedWSAs 	0
scalar MyScenario.node[193].nic.phy80211p 	busyTime 	1.8938775510204e-05
scalar MyScenario.node[193].nic.mac1609_4 	ReceivedUnicastPackets 	0
scalar MyScenario.node[193].nic.mac1609_4 	ReceivedBroadcasts 	6
scalar MyScenario.node[193].nic.mac1609_4 	SentPackets 	1
scalar MyScenario.node[193].nic.mac1609_4 	SNIRLostPackets 	6
scalar MyScenario.node[193].nic.mac1609_4 	RXTXLostPackets 	5
scalar MyScenario.node[193].nic.mac1609_4 	TotalLostPackets 	11
scalar MyScenario.node[193].nic.mac1609_4 	DroppedPacketsInMac 	0
scalar MyScenario.node[193].nic.mac1609_4 	TooLittleTime 	0
scalar MyScenario.node[193].nic.mac1609_4 	TimesIntoBackoff 	1
scalar MyScenario.node[193].nic.mac1609_4 	SlotsBackoff 	0
scalar MyScenario.node[193].nic.mac1609_4 	NumInternalContention 	0
scalar MyScenario.node[193].nic.mac1609_4 	totalBusyTime 	0.002089155903
scalar MyScenario.node[193].veinsmobility 	startTime 	7
scalar MyScenario.node[193].veinsmobility 	totalTime 	146
scalar MyScenario.node[193].veinsmobility 	stopTime 	154
scalar MyScenario.node[193].veinsmobility 	minSpeed 	1.045925167944
scalar MyScenario.node[193].veinsmobility 	maxSpeed 	13.888767988328
scalar MyScenario.node[193].veinsmobility 	totalDistance 	1662.3014610715
scalar MyScenario.node[193].veinsmobility 	totalCO2Emission 	478.51302090074
