version 2
run General-12-20170829-17:39:18-8100
attr configname General
attr datetime 20170829-17:39:18
attr density 200
attr experiment General
attr inifile omnetpp.ini
attr iterationvars $density=200
attr iterationvars2 "$density=200, $repetition=2"
attr measurement $density=200
attr network com.liborio.pi.MyScenario
attr processid 8100
attr repetition 2
attr replication #2
attr resultdir results
attr runnumber 12
attr seedset 2
param **.coreDebug false
param **.debug false
param *.**.nic.mac1609_4.bitrate 6Mbps
param *.**.nic.mac1609_4.txPower 20mW
param *.**.nic.mac1609_4.useServiceChannel true
param *.**.nic.phy80211p.analogueModels "xmldoc(\"config.xml\")"
param *.**.nic.phy80211p.antenna "xmldoc(\"antenna.xml\", \"/root/Antenna[@id='monopole']\")"
param *.**.nic.phy80211p.decider "xmldoc(\"config.xml\")"
param *.**.nic.phy80211p.sensitivity -84.39dBm
param *.**.nic.phy80211p.thermalNoise -110dBm
param *.**.nic.phy80211p.usePropagationDelay true
param *.**.nic.phy80211p.useThermalNoise true
param *.annotations.draw true
param *.connectionManager.drawMaxIntfDist false
param *.connectionManager.maxInterfDist 2600m
param *.connectionManager.sendDirect true
param *.manager.autoShutdown true
param *.manager.host "\"localhost\""
param *.manager.launchConfig "xmldoc(string(${density = 100, 200, 300, 400})+\"_\"+ string(${repetition})+\".launchd.xml\")"
param *.manager.port 9999
param *.manager.updateInterval 1s
param *.node[*].appl.beaconInterval 1s
param *.node[*].appl.dataOnSch true
param *.node[*].appl.headerLength "80 bit"
param *.node[*].appl.isSource false
param *.node[*].appl.numMsgs 100
param *.node[*].appl.sendBeacons false
param *.node[*].appl.stopTrafficTime 130s
param *.node[*].appl.wsmInterval 3s
param *.node[*].applType "\"Flooding\""
param *.node[*].veinsmobility.x 0
param *.node[*].veinsmobility.y 0
param *.node[*].veinsmobility.z 1.895
param *.node[*].veinsmobilityType.debug true
param *.node[0].appl.isSource true
param *.playgroundSizeX 2500m
param *.playgroundSizeY 2500m
param *.playgroundSizeZ 50m

scalar . 	density 	200
scalar MyScenario.node[14].appl 	generatedWSMs 	0
scalar MyScenario.node[14].appl 	receivedWSMs 	0
scalar MyScenario.node[14].appl 	generatedBSMs 	0
scalar MyScenario.node[14].appl 	receivedBSMs 	0
scalar MyScenario.node[14].appl 	generatedWSAs 	0
scalar MyScenario.node[14].appl 	receivedWSAs 	0
scalar MyScenario.node[14].nic.phy80211p 	busyTime 	0
scalar MyScenario.node[14].nic.mac1609_4 	ReceivedUnicastPackets 	0
scalar MyScenario.node[14].nic.mac1609_4 	ReceivedBroadcasts 	0
scalar MyScenario.node[14].nic.mac1609_4 	SentPackets 	0
scalar MyScenario.node[14].nic.mac1609_4 	SNIRLostPackets 	0
scalar MyScenario.node[14].nic.mac1609_4 	RXTXLostPackets 	0
scalar MyScenario.node[14].nic.mac1609_4 	TotalLostPackets 	0
scalar MyScenario.node[14].nic.mac1609_4 	DroppedPacketsInMac 	0
scalar MyScenario.node[14].nic.mac1609_4 	TooLittleTime 	0
scalar MyScenario.node[14].nic.mac1609_4 	TimesIntoBackoff 	0
scalar MyScenario.node[14].nic.mac1609_4 	SlotsBackoff 	0
scalar MyScenario.node[14].nic.mac1609_4 	NumInternalContention 	0
scalar MyScenario.node[14].nic.mac1609_4 	totalBusyTime 	0
scalar MyScenario.node[14].veinsmobility 	startTime 	1
scalar MyScenario.node[14].veinsmobility 	totalTime 	9
scalar MyScenario.node[14].veinsmobility 	stopTime 	11
scalar MyScenario.node[14].veinsmobility 	minSpeed 	1.7212031427538
scalar MyScenario.node[14].veinsmobility 	maxSpeed 	13.370785508468
scalar MyScenario.node[14].veinsmobility 	totalDistance 	76.263445442449
scalar MyScenario.node[14].veinsmobility 	totalCO2Emission 	36.876900046552
scalar MyScenario.node[96].appl 	generatedWSMs 	0
scalar MyScenario.node[96].appl 	receivedWSMs 	0
scalar MyScenario.node[96].appl 	generatedBSMs 	0
scalar MyScenario.node[96].appl 	receivedBSMs 	0
scalar MyScenario.node[96].appl 	generatedWSAs 	0
scalar MyScenario.node[96].appl 	receivedWSAs 	0
scalar MyScenario.node[96].nic.phy80211p 	busyTime 	2.32e-05
scalar MyScenario.node[96].nic.mac1609_4 	ReceivedUnicastPackets 	0
scalar MyScenario.node[96].nic.mac1609_4 	ReceivedBroadcasts 	0
scalar MyScenario.node[96].nic.mac1609_4 	SentPackets 	0
scalar MyScenario.node[96].nic.mac1609_4 	SNIRLostPackets 	1
scalar MyScenario.node[96].nic.mac1609_4 	RXTXLostPackets 	0
scalar MyScenario.node[96].nic.mac1609_4 	TotalLostPackets 	1
scalar MyScenario.node[96].nic.mac1609_4 	DroppedPacketsInMac 	0
scalar MyScenario.node[96].nic.mac1609_4 	TooLittleTime 	0
scalar MyScenario.node[96].nic.mac1609_4 	TimesIntoBackoff 	0
scalar MyScenario.node[96].nic.mac1609_4 	SlotsBackoff 	0
scalar MyScenario.node[96].nic.mac1609_4 	NumInternalContention 	0
scalar MyScenario.node[96].nic.mac1609_4 	totalBusyTime 	0.000232
scalar MyScenario.node[96].veinsmobility 	startTime 	1
scalar MyScenario.node[96].veinsmobility 	totalTime 	9
scalar MyScenario.node[96].veinsmobility 	stopTime 	11
scalar MyScenario.node[96].veinsmobility 	minSpeed 	2.048731820914
scalar MyScenario.node[96].veinsmobility 	maxSpeed 	13.706770634791
scalar MyScenario.node[96].veinsmobility 	totalDistance 	78.965394233051
scalar MyScenario.node[96].veinsmobility 	totalCO2Emission 	38.145683820618
scalar MyScenario.node[56].appl 	generatedWSMs 	0
scalar MyScenario.node[56].appl 	receivedWSMs 	0
scalar MyScenario.node[56].appl 	generatedBSMs 	0
scalar MyScenario.node[56].appl 	receivedBSMs 	0
scalar MyScenario.node[56].appl 	generatedWSAs 	0
scalar MyScenario.node[56].appl 	receivedWSAs 	0
scalar MyScenario.node[56].nic.phy80211p 	busyTime 	0.0001624
scalar MyScenario.node[56].nic.mac1609_4 	ReceivedUnicastPackets 	0
scalar MyScenario.node[56].nic.mac1609_4 	ReceivedBroadcasts 	0
scalar MyScenario.node[56].nic.mac1609_4 	SentPackets 	0
scalar MyScenario.node[56].nic.mac1609_4 	SNIRLostPackets 	7
scalar MyScenario.node[56].nic.mac1609_4 	RXTXLostPackets 	0
scalar MyScenario.node[56].nic.mac1609_4 	TotalLostPackets 	7
scalar MyScenario.node[56].nic.mac1609_4 	DroppedPacketsInMac 	0
scalar MyScenario.node[56].nic.mac1609_4 	TooLittleTime 	0
scalar MyScenario.node[56].nic.mac1609_4 	TimesIntoBackoff 	0
scalar MyScenario.node[56].nic.mac1609_4 	SlotsBackoff 	0
scalar MyScenario.node[56].nic.mac1609_4 	NumInternalContention 	0
scalar MyScenario.node[56].nic.mac1609_4 	totalBusyTime 	0.000464
scalar MyScenario.node[56].veinsmobility 	startTime 	1
scalar MyScenario.node[56].veinsmobility 	totalTime 	9
scalar MyScenario.node[56].veinsmobility 	stopTime 	11
scalar MyScenario.node[56].veinsmobility 	minSpeed 	1.6477230939781
scalar MyScenario.node[56].veinsmobility 	maxSpeed 	13.894440621929
scalar MyScenario.node[56].veinsmobility 	totalDistance 	80.342528665361
scalar MyScenario.node[56].veinsmobility 	totalCO2Emission 	38.428524160064
scalar MyScenario.node[140].appl 	generatedWSMs 	0
scalar MyScenario.node[140].appl 	receivedWSMs 	0
scalar MyScenario.node[140].appl 	generatedBSMs 	0
scalar MyScenario.node[140].appl 	receivedBSMs 	0
scalar MyScenario.node[140].appl 	generatedWSAs 	0
scalar MyScenario.node[140].appl 	receivedWSAs 	0
scalar MyScenario.node[140].nic.phy80211p 	busyTime 	0
scalar MyScenario.node[140].nic.mac1609_4 	ReceivedUnicastPackets 	0
scalar MyScenario.node[140].nic.mac1609_4 	ReceivedBroadcasts 	0
scalar MyScenario.node[140].nic.mac1609_4 	SentPackets 	0
scalar MyScenario.node[140].nic.mac1609_4 	SNIRLostPackets 	0
scalar MyScenario.node[140].nic.mac1609_4 	RXTXLostPackets 	0
scalar MyScenario.node[140].nic.mac1609_4 	TotalLostPackets 	0
scalar MyScenario.node[140].nic.mac1609_4 	DroppedPacketsInMac 	0
scalar MyScenario.node[140].nic.mac1609_4 	TooLittleTime 	0
scalar MyScenario.node[140].nic.mac1609_4 	TimesIntoBackoff 	0
scalar MyScenario.node[140].nic.mac1609_4 	SlotsBackoff 	0
scalar MyScenario.node[140].nic.mac1609_4 	NumInternalContention 	0
scalar MyScenario.node[140].nic.mac1609_4 	totalBusyTime 	0
scalar MyScenario.node[140].veinsmobility 	startTime 	1
scalar MyScenario.node[140].veinsmobility 	totalTime 	9
scalar MyScenario.node[140].veinsmobility 	stopTime 	11
scalar MyScenario.node[140].veinsmobility 	minSpeed 	2.3995883058989
scalar MyScenario.node[140].veinsmobility 	maxSpeed 	13.680873535317
scalar MyScenario.node[140].veinsmobility 	totalDistance 	85.530875877617
scalar MyScenario.node[140].veinsmobility 	totalCO2Emission 	36.53314999762
scalar MyScenario.node[35].appl 	generatedWSMs 	1
scalar MyScenario.node[35].appl 	receivedWSMs 	1
scalar MyScenario.node[35].appl 	generatedBSMs 	0
scalar MyScenario.node[35].appl 	receivedBSMs 	0
scalar MyScenario.node[35].appl 	generatedWSAs 	0
scalar MyScenario.node[35].appl 	receivedWSAs 	0
scalar MyScenario.node[35].nic.phy80211p 	busyTime 	0.0002088
scalar MyScenario.node[35].nic.mac1609_4 	ReceivedUnicastPackets 	0
scalar MyScenario.node[35].nic.mac1609_4 	ReceivedBroadcasts 	1
scalar MyScenario.node[35].nic.mac1609_4 	SentPackets 	1
scalar MyScenario.node[35].nic.mac1609_4 	SNIRLostPackets 	8
scalar MyScenario.node[35].nic.mac1609_4 	RXTXLostPackets 	6
scalar MyScenario.node[35].nic.mac1609_4 	TotalLostPackets 	14
scalar MyScenario.node[35].nic.mac1609_4 	DroppedPacketsInMac 	0
scalar MyScenario.node[35].nic.mac1609_4 	TooLittleTime 	0
scalar MyScenario.node[35].nic.mac1609_4 	TimesIntoBackoff 	1
scalar MyScenario.node[35].nic.mac1609_4 	SlotsBackoff 	3
scalar MyScenario.node[35].nic.mac1609_4 	NumInternalContention 	0
scalar MyScenario.node[35].nic.mac1609_4 	totalBusyTime 	0.000697031308
scalar MyScenario.node[35].veinsmobility 	startTime 	1
scalar MyScenario.node[35].veinsmobility 	totalTime 	9
scalar MyScenario.node[35].veinsmobility 	stopTime 	11
scalar MyScenario.node[35].veinsmobility 	minSpeed 	2.2097789225867
scalar MyScenario.node[35].veinsmobility 	maxSpeed 	13.453819058486
scalar MyScenario.node[35].veinsmobility 	totalDistance 	86.188080531594
scalar MyScenario.node[35].veinsmobility 	totalCO2Emission 	37.564401857729
scalar MyScenario.node[138].appl 	generatedWSMs 	0
scalar MyScenario.node[138].appl 	receivedWSMs 	0
scalar MyScenario.node[138].appl 	generatedBSMs 	0
scalar MyScenario.node[138].appl 	receivedBSMs 	0
scalar MyScenario.node[138].appl 	generatedWSAs 	0
scalar MyScenario.node[138].appl 	receivedWSAs 	0
scalar MyScenario.node[138].nic.phy80211p 	busyTime 	0
scalar MyScenario.node[138].nic.mac1609_4 	ReceivedUnicastPackets 	0
scalar MyScenario.node[138].nic.mac1609_4 	ReceivedBroadcasts 	0
scalar MyScenario.node[138].nic.mac1609_4 	SentPackets 	0
scalar MyScenario.node[138].nic.mac1609_4 	SNIRLostPackets 	0
scalar MyScenario.node[138].nic.mac1609_4 	RXTXLostPackets 	0
scalar MyScenario.node[138].nic.mac1609_4 	TotalLostPackets 	0
scalar MyScenario.node[138].nic.mac1609_4 	DroppedPacketsInMac 	0
scalar MyScenario.node[138].nic.mac1609_4 	TooLittleTime 	0
scalar MyScenario.node[138].nic.mac1609_4 	TimesIntoBackoff 	0
scalar MyScenario.node[138].nic.mac1609_4 	SlotsBackoff 	0
scalar MyScenario.node[138].nic.mac1609_4 	NumInternalContention 	0
scalar MyScenario.node[138].nic.mac1609_4 	totalBusyTime 	0
scalar MyScenario.node[138].veinsmobility 	startTime 	1
scalar MyScenario.node[138].veinsmobility 	totalTime 	10
scalar MyScenario.node[138].veinsmobility 	stopTime 	12
scalar MyScenario.node[138].veinsmobility 	minSpeed 	2.5729472622508
scalar MyScenario.node[138].veinsmobility 	maxSpeed 	13.633729736623
scalar MyScenario.node[138].veinsmobility 	totalDistance 	93.350502133596
scalar MyScenario.node[138].veinsmobility 	totalCO2Emission 	41.61612454315
scalar MyScenario.node[85].appl 	generatedWSMs 	1
scalar MyScenario.node[85].appl 	receivedWSMs 	1
scalar MyScenario.node[85].appl 	generatedBSMs 	0
scalar MyScenario.node[85].appl 	receivedBSMs 	0
scalar MyScenario.node[85].appl 	generatedWSAs 	0
scalar MyScenario.node[85].appl 	receivedWSAs 	0
scalar MyScenario.node[85].nic.phy80211p 	busyTime 	0.00010545454545455
scalar MyScenario.node[85].nic.mac1609_4 	ReceivedUnicastPackets 	0
scalar MyScenario.node[85].nic.mac1609_4 	ReceivedBroadcasts 	1
scalar MyScenario.node[85].nic.mac1609_4 	SentPackets 	1
scalar MyScenario.node[85].nic.mac1609_4 	SNIRLostPackets 	4
scalar MyScenario.node[85].nic.mac1609_4 	RXTXLostPackets 	12
scalar MyScenario.node[85].nic.mac1609_4 	TotalLostPackets 	16
scalar MyScenario.node[85].nic.mac1609_4 	DroppedPacketsInMac 	0
scalar MyScenario.node[85].nic.mac1609_4 	TooLittleTime 	0
scalar MyScenario.node[85].nic.mac1609_4 	TimesIntoBackoff 	1
scalar MyScenario.node[85].nic.mac1609_4 	SlotsBackoff 	0
scalar MyScenario.node[85].nic.mac1609_4 	NumInternalContention 	0
scalar MyScenario.node[85].nic.mac1609_4 	totalBusyTime 	0.000929197159
scalar MyScenario.node[85].veinsmobility 	startTime 	1
scalar MyScenario.node[85].veinsmobility 	totalTime 	10
scalar MyScenario.node[85].veinsmobility 	stopTime 	12
scalar MyScenario.node[85].veinsmobility 	minSpeed 	1.8450018931646
scalar MyScenario.node[85].veinsmobility 	maxSpeed 	13.815564679424
scalar MyScenario.node[85].veinsmobility 	totalDistance 	91.888081974161
scalar MyScenario.node[85].veinsmobility 	totalCO2Emission 	40.877416171078
scalar MyScenario.node[92].appl 	generatedWSMs 	0
scalar MyScenario.node[92].appl 	receivedWSMs 	0
scalar MyScenario.node[92].appl 	generatedBSMs 	0
scalar MyScenario.node[92].appl 	receivedBSMs 	0
scalar MyScenario.node[92].appl 	generatedWSAs 	0
scalar MyScenario.node[92].appl 	receivedWSAs 	0
scalar MyScenario.node[92].nic.phy80211p 	busyTime 	0.00010917647058824
scalar MyScenario.node[92].nic.mac1609_4 	ReceivedUnicastPackets 	0
scalar MyScenario.node[92].nic.mac1609_4 	ReceivedBroadcasts 	0
scalar MyScenario.node[92].nic.mac1609_4 	SentPackets 	0
scalar MyScenario.node[92].nic.mac1609_4 	SNIRLostPackets 	8
scalar MyScenario.node[92].nic.mac1609_4 	RXTXLostPackets 	0
scalar MyScenario.node[92].nic.mac1609_4 	TotalLostPackets 	8
scalar MyScenario.node[92].nic.mac1609_4 	DroppedPacketsInMac 	0
scalar MyScenario.node[92].nic.mac1609_4 	TooLittleTime 	0
scalar MyScenario.node[92].nic.mac1609_4 	TimesIntoBackoff 	0
scalar MyScenario.node[92].nic.mac1609_4 	SlotsBackoff 	0
scalar MyScenario.node[92].nic.mac1609_4 	NumInternalContention 	0
scalar MyScenario.node[92].nic.mac1609_4 	totalBusyTime 	0.000232
scalar MyScenario.node[92].veinsmobility 	startTime 	1
scalar MyScenario.node[92].veinsmobility 	totalTime 	16
scalar MyScenario.node[92].veinsmobility 	stopTime 	18
scalar MyScenario.node[92].veinsmobility 	minSpeed 	1.5274879727745
scalar MyScenario.node[92].veinsmobility 	maxSpeed 	13.855418433947
scalar MyScenario.node[92].veinsmobility 	totalDistance 	169.91401680427
scalar MyScenario.node[92].veinsmobility 	totalCO2Emission 	52.456942118754
scalar MyScenario.node[0].appl 	generatedWSMs 	6
scalar MyScenario.node[0].appl 	receivedWSMs 	2
scalar MyScenario.node[0].appl 	generatedBSMs 	0
scalar MyScenario.node[0].appl 	receivedBSMs 	0
scalar MyScenario.node[0].appl 	generatedWSAs 	0
scalar MyScenario.node[0].appl 	receivedWSAs 	0
scalar MyScenario.node[0].nic.phy80211p 	busyTime 	0.00027294117647059
scalar MyScenario.node[0].nic.mac1609_4 	ReceivedUnicastPackets 	0
scalar MyScenario.node[0].nic.mac1609_4 	ReceivedBroadcasts 	2
scalar MyScenario.node[0].nic.mac1609_4 	SentPackets 	6
scalar MyScenario.node[0].nic.mac1609_4 	SNIRLostPackets 	18
scalar MyScenario.node[0].nic.mac1609_4 	RXTXLostPackets 	0
scalar MyScenario.node[0].nic.mac1609_4 	TotalLostPackets 	18
scalar MyScenario.node[0].nic.mac1609_4 	DroppedPacketsInMac 	0
scalar MyScenario.node[0].nic.mac1609_4 	TooLittleTime 	0
scalar MyScenario.node[0].nic.mac1609_4 	TimesIntoBackoff 	6
scalar MyScenario.node[0].nic.mac1609_4 	SlotsBackoff 	5
scalar MyScenario.node[0].nic.mac1609_4 	NumInternalContention 	0
scalar MyScenario.node[0].nic.mac1609_4 	totalBusyTime 	0.00232603903
scalar MyScenario.node[0].veinsmobility 	startTime 	1
scalar MyScenario.node[0].veinsmobility 	totalTime 	16
scalar MyScenario.node[0].veinsmobility 	stopTime 	18
scalar MyScenario.node[0].veinsmobility 	minSpeed 	1.9759391792351
scalar MyScenario.node[0].veinsmobility 	maxSpeed 	13.627420714428
scalar MyScenario.node[0].veinsmobility 	totalDistance 	173.14496296351
scalar MyScenario.node[0].veinsmobility 	totalCO2Emission 	51.116597426515
scalar MyScenario.node[189].appl 	generatedWSMs 	0
scalar MyScenario.node[189].appl 	receivedWSMs 	0
scalar MyScenario.node[189].appl 	generatedBSMs 	0
scalar MyScenario.node[189].appl 	receivedBSMs 	0
scalar MyScenario.node[189].appl 	generatedWSAs 	0
scalar MyScenario.node[189].appl 	receivedWSAs 	0
scalar MyScenario.node[189].nic.phy80211p 	busyTime 	9.7684210526316e-05
scalar MyScenario.node[189].nic.mac1609_4 	ReceivedUnicastPackets 	0
scalar MyScenario.node[189].nic.mac1609_4 	ReceivedBroadcasts 	0
scalar MyScenario.node[189].nic.mac1609_4 	SentPackets 	0
scalar MyScenario.node[189].nic.mac1609_4 	SNIRLostPackets 	8
scalar MyScenario.node[189].nic.mac1609_4 	RXTXLostPackets 	0
scalar MyScenario.node[189].nic.mac1609_4 	TotalLostPackets 	8
scalar MyScenario.node[189].nic.mac1609_4 	DroppedPacketsInMac 	0
scalar MyScenario.node[189].nic.mac1609_4 	TooLittleTime 	0
scalar MyScenario.node[189].nic.mac1609_4 	TimesIntoBackoff 	0
scalar MyScenario.node[189].nic.mac1609_4 	SlotsBackoff 	0
scalar MyScenario.node[189].nic.mac1609_4 	NumInternalContention 	0
scalar MyScenario.node[189].nic.mac1609_4 	totalBusyTime 	0.000232
scalar MyScenario.node[189].veinsmobility 	startTime 	4
scalar MyScenario.node[189].veinsmobility 	totalTime 	18
scalar MyScenario.node[189].veinsmobility 	stopTime 	23
scalar MyScenario.node[189].veinsmobility 	minSpeed 	2.3984853293747
scalar MyScenario.node[189].veinsmobility 	maxSpeed 	13.382075126166
scalar MyScenario.node[189].veinsmobility 	totalDistance 	177.6417372229
scalar MyScenario.node[189].veinsmobility 	totalCO2Emission 	67.668665164449
scalar MyScenario.node[98].appl 	generatedWSMs 	1
scalar MyScenario.node[98].appl 	receivedWSMs 	1
scalar MyScenario.node[98].appl 	generatedBSMs 	0
scalar MyScenario.node[98].appl 	receivedBSMs 	0
scalar MyScenario.node[98].appl 	generatedWSAs 	0
scalar MyScenario.node[98].appl 	receivedWSAs 	0
scalar MyScenario.node[98].nic.phy80211p 	busyTime 	5.1555555555556e-05
scalar MyScenario.node[98].nic.mac1609_4 	ReceivedUnicastPackets 	0
scalar MyScenario.node[98].nic.mac1609_4 	ReceivedBroadcasts 	1
scalar MyScenario.node[98].nic.mac1609_4 	SentPackets 	1
scalar MyScenario.node[98].nic.mac1609_4 	SNIRLostPackets 	5
scalar MyScenario.node[98].nic.mac1609_4 	RXTXLostPackets 	7
scalar MyScenario.node[98].nic.mac1609_4 	TotalLostPackets 	12
scalar MyScenario.node[98].nic.mac1609_4 	DroppedPacketsInMac 	0
scalar MyScenario.node[98].nic.mac1609_4 	TooLittleTime 	0
scalar MyScenario.node[98].nic.mac1609_4 	TimesIntoBackoff 	1
scalar MyScenario.node[98].nic.mac1609_4 	SlotsBackoff 	0
scalar MyScenario.node[98].nic.mac1609_4 	NumInternalContention 	0
scalar MyScenario.node[98].nic.mac1609_4 	totalBusyTime 	0.000697
scalar MyScenario.node[98].veinsmobility 	startTime 	1
scalar MyScenario.node[98].veinsmobility 	totalTime 	26
scalar MyScenario.node[98].veinsmobility 	stopTime 	28
scalar MyScenario.node[98].veinsmobility 	minSpeed 	2.2566867448157
scalar MyScenario.node[98].veinsmobility 	maxSpeed 	13.699727300717
scalar MyScenario.node[98].veinsmobility 	totalDistance 	266.06144301071
scalar MyScenario.node[98].veinsmobility 	totalCO2Emission 	92.350622981838
scalar MyScenario.node[19].appl 	generatedWSMs 	0
scalar MyScenario.node[19].appl 	receivedWSMs 	0
scalar MyScenario.node[19].appl 	generatedBSMs 	0
scalar MyScenario.node[19].appl 	receivedBSMs 	0
scalar MyScenario.node[19].appl 	generatedWSAs 	0
scalar MyScenario.node[19].appl 	receivedWSAs 	0
scalar MyScenario.node[19].nic.phy80211p 	busyTime 	0
scalar MyScenario.node[19].nic.mac1609_4 	ReceivedUnicastPackets 	0
scalar MyScenario.node[19].nic.mac1609_4 	ReceivedBroadcasts 	0
scalar MyScenario.node[19].nic.mac1609_4 	SentPackets 	0
scalar MyScenario.node[19].nic.mac1609_4 	SNIRLostPackets 	0
scalar MyScenario.node[19].nic.mac1609_4 	RXTXLostPackets 	0
scalar MyScenario.node[19].nic.mac1609_4 	TotalLostPackets 	0
scalar MyScenario.node[19].nic.mac1609_4 	DroppedPacketsInMac 	0
scalar MyScenario.node[19].nic.mac1609_4 	TooLittleTime 	0
scalar MyScenario.node[19].nic.mac1609_4 	TimesIntoBackoff 	0
scalar MyScenario.node[19].nic.mac1609_4 	SlotsBackoff 	0
scalar MyScenario.node[19].nic.mac1609_4 	NumInternalContention 	0
scalar MyScenario.node[19].nic.mac1609_4 	totalBusyTime 	0
scalar MyScenario.node[19].veinsmobility 	startTime 	1
scalar MyScenario.node[19].veinsmobility 	totalTime 	26
scalar MyScenario.node[19].veinsmobility 	stopTime 	28
scalar MyScenario.node[19].veinsmobility 	minSpeed 	1.7271115578944
scalar MyScenario.node[19].veinsmobility 	maxSpeed 	13.682729494525
scalar MyScenario.node[19].veinsmobility 	totalDistance 	273.73637631821
scalar MyScenario.node[19].veinsmobility 	totalCO2Emission 	89.69965509495
scalar MyScenario.node[169].appl 	generatedWSMs 	1
scalar MyScenario.node[169].appl 	receivedWSMs 	6
scalar MyScenario.node[169].appl 	generatedBSMs 	0
scalar MyScenario.node[169].appl 	receivedBSMs 	0
scalar MyScenario.node[169].appl 	generatedWSAs 	0
scalar MyScenario.node[169].appl 	receivedWSAs 	0
scalar MyScenario.node[169].nic.phy80211p 	busyTime 	0.00012428571428571
scalar MyScenario.node[169].nic.mac1609_4 	ReceivedUnicastPackets 	0
scalar MyScenario.node[169].nic.mac1609_4 	ReceivedBroadcasts 	6
scalar MyScenario.node[169].nic.mac1609_4 	SentPackets 	1
scalar MyScenario.node[169].nic.mac1609_4 	SNIRLostPackets 	9
scalar MyScenario.node[169].nic.mac1609_4 	RXTXLostPackets 	2
scalar MyScenario.node[169].nic.mac1609_4 	TotalLostPackets 	11
scalar MyScenario.node[169].nic.mac1609_4 	DroppedPacketsInMac 	0
scalar MyScenario.node[169].nic.mac1609_4 	TooLittleTime 	0
scalar MyScenario.node[169].nic.mac1609_4 	TimesIntoBackoff 	1
scalar MyScenario.node[169].nic.mac1609_4 	SlotsBackoff 	3
scalar MyScenario.node[169].nic.mac1609_4 	NumInternalContention 	0
scalar MyScenario.node[169].nic.mac1609_4 	totalBusyTime 	0.002321133144
scalar MyScenario.node[169].veinsmobility 	startTime 	4
scalar MyScenario.node[169].veinsmobility 	totalTime 	27
scalar MyScenario.node[169].veinsmobility 	stopTime 	32
scalar MyScenario.node[169].veinsmobility 	minSpeed 	2.4485733935144
scalar MyScenario.node[169].veinsmobility 	maxSpeed 	13.798700849013
scalar MyScenario.node[169].veinsmobility 	totalDistance 	273.45999497987
scalar MyScenario.node[169].veinsmobility 	totalCO2Emission 	106.59134426386
scalar MyScenario.node[22].appl 	generatedWSMs 	1
scalar MyScenario.node[22].appl 	receivedWSMs 	1
scalar MyScenario.node[22].appl 	generatedBSMs 	0
scalar MyScenario.node[22].appl 	receivedBSMs 	0
scalar MyScenario.node[22].appl 	generatedWSAs 	0
scalar MyScenario.node[22].appl 	receivedWSAs 	0
scalar MyScenario.node[22].nic.phy80211p 	busyTime 	2.175e-05
scalar MyScenario.node[22].nic.mac1609_4 	ReceivedUnicastPackets 	0
scalar MyScenario.node[22].nic.mac1609_4 	ReceivedBroadcasts 	1
scalar MyScenario.node[22].nic.mac1609_4 	SentPackets 	1
scalar MyScenario.node[22].nic.mac1609_4 	SNIRLostPackets 	2
scalar MyScenario.node[22].nic.mac1609_4 	RXTXLostPackets 	6
scalar MyScenario.node[22].nic.mac1609_4 	TotalLostPackets 	8
scalar MyScenario.node[22].nic.mac1609_4 	DroppedPacketsInMac 	0
scalar MyScenario.node[22].nic.mac1609_4 	TooLittleTime 	0
scalar MyScenario.node[22].nic.mac1609_4 	TimesIntoBackoff 	1
scalar MyScenario.node[22].nic.mac1609_4 	SlotsBackoff 	2
scalar MyScenario.node[22].nic.mac1609_4 	NumInternalContention 	0
scalar MyScenario.node[22].nic.mac1609_4 	totalBusyTime 	0.000929
scalar MyScenario.node[22].veinsmobility 	startTime 	1
scalar MyScenario.node[22].veinsmobility 	totalTime 	31
scalar MyScenario.node[22].veinsmobility 	stopTime 	33
scalar MyScenario.node[22].veinsmobility 	minSpeed 	1.8156377166277
scalar MyScenario.node[22].veinsmobility 	maxSpeed 	13.882240075036
scalar MyScenario.node[22].veinsmobility 	totalDistance 	366.82095898221
scalar MyScenario.node[22].veinsmobility 	totalCO2Emission 	87.61911633117
scalar MyScenario.node[88].appl 	generatedWSMs 	0
scalar MyScenario.node[88].appl 	receivedWSMs 	0
scalar MyScenario.node[88].appl 	generatedBSMs 	0
scalar MyScenario.node[88].appl 	receivedBSMs 	0
scalar MyScenario.node[88].appl 	generatedWSAs 	0
scalar MyScenario.node[88].appl 	receivedWSAs 	0
scalar MyScenario.node[88].nic.phy80211p 	busyTime 	0
scalar MyScenario.node[88].nic.mac1609_4 	ReceivedUnicastPackets 	0
scalar MyScenario.node[88].nic.mac1609_4 	ReceivedBroadcasts 	0
scalar MyScenario.node[88].nic.mac1609_4 	SentPackets 	0
scalar MyScenario.node[88].nic.mac1609_4 	SNIRLostPackets 	0
scalar MyScenario.node[88].nic.mac1609_4 	RXTXLostPackets 	0
scalar MyScenario.node[88].nic.mac1609_4 	TotalLostPackets 	0
scalar MyScenario.node[88].nic.mac1609_4 	DroppedPacketsInMac 	0
scalar MyScenario.node[88].nic.mac1609_4 	TooLittleTime 	0
scalar MyScenario.node[88].nic.mac1609_4 	TimesIntoBackoff 	0
scalar MyScenario.node[88].nic.mac1609_4 	SlotsBackoff 	0
scalar MyScenario.node[88].nic.mac1609_4 	NumInternalContention 	0
scalar MyScenario.node[88].nic.mac1609_4 	totalBusyTime 	0
scalar MyScenario.node[88].veinsmobility 	startTime 	1
scalar MyScenario.node[88].veinsmobility 	totalTime 	32
scalar MyScenario.node[88].veinsmobility 	stopTime 	34
scalar MyScenario.node[88].veinsmobility 	minSpeed 	1.3549526460934
scalar MyScenario.node[88].veinsmobility 	maxSpeed 	13.895032417611
scalar MyScenario.node[88].veinsmobility 	totalDistance 	363.56151402275
scalar MyScenario.node[88].veinsmobility 	totalCO2Emission 	100.10328049705
scalar MyScenario.node[28].appl 	generatedWSMs 	1
scalar MyScenario.node[28].appl 	receivedWSMs 	1
scalar MyScenario.node[28].appl 	generatedBSMs 	0
scalar MyScenario.node[28].appl 	receivedBSMs 	0
scalar MyScenario.node[28].appl 	generatedWSAs 	0
scalar MyScenario.node[28].appl 	receivedWSAs 	0
scalar MyScenario.node[28].nic.phy80211p 	busyTime 	7.030303030303e-06
scalar MyScenario.node[28].nic.mac1609_4 	ReceivedUnicastPackets 	0
scalar MyScenario.node[28].nic.mac1609_4 	ReceivedBroadcasts 	1
scalar MyScenario.node[28].nic.mac1609_4 	SentPackets 	1
scalar MyScenario.node[28].nic.mac1609_4 	SNIRLostPackets 	0
scalar MyScenario.node[28].nic.mac1609_4 	RXTXLostPackets 	9
scalar MyScenario.node[28].nic.mac1609_4 	TotalLostPackets 	9
scalar MyScenario.node[28].nic.mac1609_4 	DroppedPacketsInMac 	0
scalar MyScenario.node[28].nic.mac1609_4 	TooLittleTime 	0
scalar MyScenario.node[28].nic.mac1609_4 	TimesIntoBackoff 	1
scalar MyScenario.node[28].nic.mac1609_4 	SlotsBackoff 	1
scalar MyScenario.node[28].nic.mac1609_4 	NumInternalContention 	0
scalar MyScenario.node[28].nic.mac1609_4 	totalBusyTime 	0.000465122103
scalar MyScenario.node[28].veinsmobility 	startTime 	1
scalar MyScenario.node[28].veinsmobility 	totalTime 	32
scalar MyScenario.node[28].veinsmobility 	stopTime 	34
scalar MyScenario.node[28].veinsmobility 	minSpeed 	1.5737455872586
scalar MyScenario.node[28].veinsmobility 	maxSpeed 	13.83003142355
scalar MyScenario.node[28].veinsmobility 	totalDistance 	379.52719402661
scalar MyScenario.node[28].veinsmobility 	totalCO2Emission 	96.070053563809
scalar MyScenario.node[147].appl 	generatedWSMs 	1
scalar MyScenario.node[147].appl 	receivedWSMs 	1
scalar MyScenario.node[147].appl 	generatedBSMs 	0
scalar MyScenario.node[147].appl 	receivedBSMs 	0
scalar MyScenario.node[147].appl 	generatedWSAs 	0
scalar MyScenario.node[147].appl 	receivedWSAs 	0
scalar MyScenario.node[147].nic.phy80211p 	busyTime 	7.030303030303e-06
scalar MyScenario.node[147].nic.mac1609_4 	ReceivedUnicastPackets 	0
scalar MyScenario.node[147].nic.mac1609_4 	ReceivedBroadcasts 	1
scalar MyScenario.node[147].nic.mac1609_4 	SentPackets 	1
scalar MyScenario.node[147].nic.mac1609_4 	SNIRLostPackets 	0
scalar MyScenario.node[147].nic.mac1609_4 	RXTXLostPackets 	8
scalar MyScenario.node[147].nic.mac1609_4 	TotalLostPackets 	8
scalar MyScenario.node[147].nic.mac1609_4 	DroppedPacketsInMac 	0
scalar MyScenario.node[147].nic.mac1609_4 	TooLittleTime 	0
scalar MyScenario.node[147].nic.mac1609_4 	TimesIntoBackoff 	1
scalar MyScenario.node[147].nic.mac1609_4 	SlotsBackoff 	0
scalar MyScenario.node[147].nic.mac1609_4 	NumInternalContention 	0
scalar MyScenario.node[147].nic.mac1609_4 	totalBusyTime 	0.000465010991
scalar MyScenario.node[147].veinsmobility 	startTime 	1
scalar MyScenario.node[147].veinsmobility 	totalTime 	32
scalar MyScenario.node[147].veinsmobility 	stopTime 	34
scalar MyScenario.node[147].veinsmobility 	minSpeed 	2.3863215662539
scalar MyScenario.node[147].veinsmobility 	maxSpeed 	13.803024088382
scalar MyScenario.node[147].veinsmobility 	totalDistance 	365.85552247825
scalar MyScenario.node[147].veinsmobility 	totalCO2Emission 	106.02112976518
scalar MyScenario.node[13].appl 	generatedWSMs 	0
scalar MyScenario.node[13].appl 	receivedWSMs 	0
scalar MyScenario.node[13].appl 	generatedBSMs 	0
scalar MyScenario.node[13].appl 	receivedBSMs 	0
scalar MyScenario.node[13].appl 	generatedWSAs 	0
scalar MyScenario.node[13].appl 	receivedWSAs 	0
scalar MyScenario.node[13].nic.phy80211p 	busyTime 	0
scalar MyScenario.node[13].nic.mac1609_4 	ReceivedUnicastPackets 	0
scalar MyScenario.node[13].nic.mac1609_4 	ReceivedBroadcasts 	0
scalar MyScenario.node[13].nic.mac1609_4 	SentPackets 	0
scalar MyScenario.node[13].nic.mac1609_4 	SNIRLostPackets 	0
scalar MyScenario.node[13].nic.mac1609_4 	RXTXLostPackets 	0
scalar MyScenario.node[13].nic.mac1609_4 	TotalLostPackets 	0
scalar MyScenario.node[13].nic.mac1609_4 	DroppedPacketsInMac 	0
scalar MyScenario.node[13].nic.mac1609_4 	TooLittleTime 	0
scalar MyScenario.node[13].nic.mac1609_4 	TimesIntoBackoff 	0
scalar MyScenario.node[13].nic.mac1609_4 	SlotsBackoff 	0
scalar MyScenario.node[13].nic.mac1609_4 	NumInternalContention 	0
scalar MyScenario.node[13].nic.mac1609_4 	totalBusyTime 	0
scalar MyScenario.node[13].veinsmobility 	startTime 	1
scalar MyScenario.node[13].veinsmobility 	totalTime 	39
scalar MyScenario.node[13].veinsmobility 	stopTime 	41
scalar MyScenario.node[13].veinsmobility 	minSpeed 	1.5389812113717
scalar MyScenario.node[13].veinsmobility 	maxSpeed 	13.890757690254
scalar MyScenario.node[13].veinsmobility 	totalDistance 	472.26983106204
scalar MyScenario.node[13].veinsmobility 	totalCO2Emission 	106.29102786781
scalar MyScenario.node[50].appl 	generatedWSMs 	1
scalar MyScenario.node[50].appl 	receivedWSMs 	1
scalar MyScenario.node[50].appl 	generatedBSMs 	0
scalar MyScenario.node[50].appl 	receivedBSMs 	0
scalar MyScenario.node[50].appl 	generatedWSAs 	0
scalar MyScenario.node[50].appl 	receivedWSAs 	0
scalar MyScenario.node[50].nic.phy80211p 	busyTime 	3.48e-05
scalar MyScenario.node[50].nic.mac1609_4 	ReceivedUnicastPackets 	0
scalar MyScenario.node[50].nic.mac1609_4 	ReceivedBroadcasts 	1
scalar MyScenario.node[50].nic.mac1609_4 	SentPackets 	1
scalar MyScenario.node[50].nic.mac1609_4 	SNIRLostPackets 	5
scalar MyScenario.node[50].nic.mac1609_4 	RXTXLostPackets 	7
scalar MyScenario.node[50].nic.mac1609_4 	TotalLostPackets 	12
scalar MyScenario.node[50].nic.mac1609_4 	DroppedPacketsInMac 	0
scalar MyScenario.node[50].nic.mac1609_4 	TooLittleTime 	0
scalar MyScenario.node[50].nic.mac1609_4 	TimesIntoBackoff 	1
scalar MyScenario.node[50].nic.mac1609_4 	SlotsBackoff 	3
scalar MyScenario.node[50].nic.mac1609_4 	NumInternalContention 	0
scalar MyScenario.node[50].nic.mac1609_4 	totalBusyTime 	0.000697
scalar MyScenario.node[50].veinsmobility 	startTime 	1
scalar MyScenario.node[50].veinsmobility 	totalTime 	39
scalar MyScenario.node[50].veinsmobility 	stopTime 	41
scalar MyScenario.node[50].veinsmobility 	minSpeed 	2.3128917223774
scalar MyScenario.node[50].veinsmobility 	maxSpeed 	13.87279673866
scalar MyScenario.node[50].veinsmobility 	totalDistance 	459.80227323816
scalar MyScenario.node[50].veinsmobility 	totalCO2Emission 	126.01687547576
scalar MyScenario.node[154].appl 	generatedWSMs 	0
scalar MyScenario.node[154].appl 	receivedWSMs 	0
scalar MyScenario.node[154].appl 	generatedBSMs 	0
scalar MyScenario.node[154].appl 	receivedBSMs 	0
scalar MyScenario.node[154].appl 	generatedWSAs 	0
scalar MyScenario.node[154].appl 	receivedWSAs 	0
scalar MyScenario.node[154].nic.phy80211p 	busyTime 	0
scalar MyScenario.node[154].nic.mac1609_4 	ReceivedUnicastPackets 	0
scalar MyScenario.node[154].nic.mac1609_4 	ReceivedBroadcasts 	0
scalar MyScenario.node[154].nic.mac1609_4 	SentPackets 	0
scalar MyScenario.node[154].nic.mac1609_4 	SNIRLostPackets 	0
scalar MyScenario.node[154].nic.mac1609_4 	RXTXLostPackets 	0
scalar MyScenario.node[154].nic.mac1609_4 	TotalLostPackets 	0
scalar MyScenario.node[154].nic.mac1609_4 	DroppedPacketsInMac 	0
scalar MyScenario.node[154].nic.mac1609_4 	TooLittleTime 	0
scalar MyScenario.node[154].nic.mac1609_4 	TimesIntoBackoff 	0
scalar MyScenario.node[154].nic.mac1609_4 	SlotsBackoff 	0
scalar MyScenario.node[154].nic.mac1609_4 	NumInternalContention 	0
scalar MyScenario.node[154].nic.mac1609_4 	totalBusyTime 	0
scalar MyScenario.node[154].veinsmobility 	startTime 	4
scalar MyScenario.node[154].veinsmobility 	totalTime 	37
scalar MyScenario.node[154].veinsmobility 	stopTime 	42
scalar MyScenario.node[154].veinsmobility 	minSpeed 	2.1663704830455
scalar MyScenario.node[154].veinsmobility 	maxSpeed 	13.894818603666
scalar MyScenario.node[154].veinsmobility 	totalDistance 	383.85815806566
scalar MyScenario.node[154].veinsmobility 	totalCO2Emission 	130.3059324281
scalar MyScenario.node[186].appl 	generatedWSMs 	0
scalar MyScenario.node[186].appl 	receivedWSMs 	0
scalar MyScenario.node[186].appl 	generatedBSMs 	0
scalar MyScenario.node[186].appl 	receivedBSMs 	0
scalar MyScenario.node[186].appl 	generatedWSAs 	0
scalar MyScenario.node[186].appl 	receivedWSAs 	0
scalar MyScenario.node[186].nic.phy80211p 	busyTime 	2.974358974359e-05
scalar MyScenario.node[186].nic.mac1609_4 	ReceivedUnicastPackets 	0
scalar MyScenario.node[186].nic.mac1609_4 	ReceivedBroadcasts 	0
scalar MyScenario.node[186].nic.mac1609_4 	SentPackets 	0
scalar MyScenario.node[186].nic.mac1609_4 	SNIRLostPackets 	5
scalar MyScenario.node[186].nic.mac1609_4 	RXTXLostPackets 	0
scalar MyScenario.node[186].nic.mac1609_4 	TotalLostPackets 	5
scalar MyScenario.node[186].nic.mac1609_4 	DroppedPacketsInMac 	0
scalar MyScenario.node[186].nic.mac1609_4 	TooLittleTime 	0
scalar MyScenario.node[186].nic.mac1609_4 	TimesIntoBackoff 	0
scalar MyScenario.node[186].nic.mac1609_4 	SlotsBackoff 	0
scalar MyScenario.node[186].nic.mac1609_4 	NumInternalContention 	0
scalar MyScenario.node[186].nic.mac1609_4 	totalBusyTime 	0.000464
scalar MyScenario.node[186].veinsmobility 	startTime 	4
scalar MyScenario.node[186].veinsmobility 	totalTime 	38
scalar MyScenario.node[186].veinsmobility 	stopTime 	43
scalar MyScenario.node[186].veinsmobility 	minSpeed 	2.0521874830127
scalar MyScenario.node[186].veinsmobility 	maxSpeed 	13.881494824309
scalar MyScenario.node[186].veinsmobility 	totalDistance 	469.02413575698
scalar MyScenario.node[186].veinsmobility 	totalCO2Emission 	99.495663586681
scalar MyScenario.node[31].appl 	generatedWSMs 	1
scalar MyScenario.node[31].appl 	receivedWSMs 	2
scalar MyScenario.node[31].appl 	generatedBSMs 	0
scalar MyScenario.node[31].appl 	receivedBSMs 	0
scalar MyScenario.node[31].appl 	generatedWSAs 	0
scalar MyScenario.node[31].appl 	receivedWSAs 	0
scalar MyScenario.node[31].nic.phy80211p 	busyTime 	8.8380952380952e-05
scalar MyScenario.node[31].nic.mac1609_4 	ReceivedUnicastPackets 	0
scalar MyScenario.node[31].nic.mac1609_4 	ReceivedBroadcasts 	2
scalar MyScenario.node[31].nic.mac1609_4 	SentPackets 	1
scalar MyScenario.node[31].nic.mac1609_4 	SNIRLostPackets 	14
scalar MyScenario.node[31].nic.mac1609_4 	RXTXLostPackets 	1
scalar MyScenario.node[31].nic.mac1609_4 	TotalLostPackets 	15
scalar MyScenario.node[31].nic.mac1609_4 	DroppedPacketsInMac 	0
scalar MyScenario.node[31].nic.mac1609_4 	TooLittleTime 	0
scalar MyScenario.node[31].nic.mac1609_4 	TimesIntoBackoff 	1
scalar MyScenario.node[31].nic.mac1609_4 	SlotsBackoff 	1
scalar MyScenario.node[31].nic.mac1609_4 	NumInternalContention 	0
scalar MyScenario.node[31].nic.mac1609_4 	totalBusyTime 	0.001161
scalar MyScenario.node[31].veinsmobility 	startTime 	1
scalar MyScenario.node[31].veinsmobility 	totalTime 	41
scalar MyScenario.node[31].veinsmobility 	stopTime 	43
scalar MyScenario.node[31].veinsmobility 	minSpeed 	1.9414770999923
scalar MyScenario.node[31].veinsmobility 	maxSpeed 	13.807367863366
scalar MyScenario.node[31].veinsmobility 	totalDistance 	473.03862330876
scalar MyScenario.node[31].veinsmobility 	totalCO2Emission 	121.70323939407
scalar MyScenario.node[167].appl 	generatedWSMs 	0
scalar MyScenario.node[167].appl 	receivedWSMs 	0
scalar MyScenario.node[167].appl 	generatedBSMs 	0
scalar MyScenario.node[167].appl 	receivedBSMs 	0
scalar MyScenario.node[167].appl 	generatedWSAs 	0
scalar MyScenario.node[167].appl 	receivedWSAs 	0
scalar MyScenario.node[167].nic.phy80211p 	busyTime 	1.74e-05
scalar MyScenario.node[167].nic.mac1609_4 	ReceivedUnicastPackets 	0
scalar MyScenario.node[167].nic.mac1609_4 	ReceivedBroadcasts 	0
scalar MyScenario.node[167].nic.mac1609_4 	SentPackets 	0
scalar MyScenario.node[167].nic.mac1609_4 	SNIRLostPackets 	3
scalar MyScenario.node[167].nic.mac1609_4 	RXTXLostPackets 	0
scalar MyScenario.node[167].nic.mac1609_4 	TotalLostPackets 	3
scalar MyScenario.node[167].nic.mac1609_4 	DroppedPacketsInMac 	0
scalar MyScenario.node[167].nic.mac1609_4 	TooLittleTime 	0
scalar MyScenario.node[167].nic.mac1609_4 	TimesIntoBackoff 	0
scalar MyScenario.node[167].nic.mac1609_4 	SlotsBackoff 	0
scalar MyScenario.node[167].nic.mac1609_4 	NumInternalContention 	0
scalar MyScenario.node[167].nic.mac1609_4 	totalBusyTime 	0.000232
scalar MyScenario.node[167].veinsmobility 	startTime 	4
scalar MyScenario.node[167].veinsmobility 	totalTime 	39
scalar MyScenario.node[167].veinsmobility 	stopTime 	44
scalar MyScenario.node[167].veinsmobility 	minSpeed 	1.8876240222482
scalar MyScenario.node[167].veinsmobility 	maxSpeed 	13.815651441389
scalar MyScenario.node[167].veinsmobility 	totalDistance 	472.03927962962
scalar MyScenario.node[167].veinsmobility 	totalCO2Emission 	106.44945466172
scalar MyScenario.node[65].appl 	generatedWSMs 	0
scalar MyScenario.node[65].appl 	receivedWSMs 	0
scalar MyScenario.node[65].appl 	generatedBSMs 	0
scalar MyScenario.node[65].appl 	receivedBSMs 	0
scalar MyScenario.node[65].appl 	generatedWSAs 	0
scalar MyScenario.node[65].appl 	receivedWSAs 	0
scalar MyScenario.node[65].nic.phy80211p 	busyTime 	0
scalar MyScenario.node[65].nic.mac1609_4 	ReceivedUnicastPackets 	0
scalar MyScenario.node[65].nic.mac1609_4 	ReceivedBroadcasts 	0
scalar MyScenario.node[65].nic.mac1609_4 	SentPackets 	0
scalar MyScenario.node[65].nic.mac1609_4 	SNIRLostPackets 	0
scalar MyScenario.node[65].nic.mac1609_4 	RXTXLostPackets 	0
scalar MyScenario.node[65].nic.mac1609_4 	TotalLostPackets 	0
scalar MyScenario.node[65].nic.mac1609_4 	DroppedPacketsInMac 	0
scalar MyScenario.node[65].nic.mac1609_4 	TooLittleTime 	0
scalar MyScenario.node[65].nic.mac1609_4 	TimesIntoBackoff 	0
scalar MyScenario.node[65].nic.mac1609_4 	SlotsBackoff 	0
scalar MyScenario.node[65].nic.mac1609_4 	NumInternalContention 	0
scalar MyScenario.node[65].nic.mac1609_4 	totalBusyTime 	0
scalar MyScenario.node[65].veinsmobility 	startTime 	1
scalar MyScenario.node[65].veinsmobility 	totalTime 	42
scalar MyScenario.node[65].veinsmobility 	stopTime 	44
scalar MyScenario.node[65].veinsmobility 	minSpeed 	3.57381213765e-05
scalar MyScenario.node[65].veinsmobility 	maxSpeed 	13.785527923168
scalar MyScenario.node[65].veinsmobility 	totalDistance 	374.84566622919
scalar MyScenario.node[65].veinsmobility 	totalCO2Emission 	138.43840181685
scalar MyScenario.node[8].appl 	generatedWSMs 	0
scalar MyScenario.node[8].appl 	receivedWSMs 	0
scalar MyScenario.node[8].appl 	generatedBSMs 	0
scalar MyScenario.node[8].appl 	receivedBSMs 	0
scalar MyScenario.node[8].appl 	generatedWSAs 	0
scalar MyScenario.node[8].appl 	receivedWSAs 	0
scalar MyScenario.node[8].nic.phy80211p 	busyTime 	0
scalar MyScenario.node[8].nic.mac1609_4 	ReceivedUnicastPackets 	0
scalar MyScenario.node[8].nic.mac1609_4 	ReceivedBroadcasts 	0
scalar MyScenario.node[8].nic.mac1609_4 	SentPackets 	0
scalar MyScenario.node[8].nic.mac1609_4 	SNIRLostPackets 	0
scalar MyScenario.node[8].nic.mac1609_4 	RXTXLostPackets 	0
scalar MyScenario.node[8].nic.mac1609_4 	TotalLostPackets 	0
scalar MyScenario.node[8].nic.mac1609_4 	DroppedPacketsInMac 	0
scalar MyScenario.node[8].nic.mac1609_4 	TooLittleTime 	0
scalar MyScenario.node[8].nic.mac1609_4 	TimesIntoBackoff 	0
scalar MyScenario.node[8].nic.mac1609_4 	SlotsBackoff 	0
scalar MyScenario.node[8].nic.mac1609_4 	NumInternalContention 	0
scalar MyScenario.node[8].nic.mac1609_4 	totalBusyTime 	0
scalar MyScenario.node[8].veinsmobility 	startTime 	1
scalar MyScenario.node[8].veinsmobility 	totalTime 	42
scalar MyScenario.node[8].veinsmobility 	stopTime 	44
scalar MyScenario.node[8].veinsmobility 	minSpeed 	1.4290706864558
scalar MyScenario.node[8].veinsmobility 	maxSpeed 	13.85432157882
scalar MyScenario.node[8].veinsmobility 	totalDistance 	474.72468745039
scalar MyScenario.node[8].veinsmobility 	totalCO2Emission 	136.99336622616
scalar MyScenario.node[51].appl 	generatedWSMs 	1
scalar MyScenario.node[51].appl 	receivedWSMs 	1
scalar MyScenario.node[51].appl 	generatedBSMs 	0
scalar MyScenario.node[51].appl 	receivedBSMs 	0
scalar MyScenario.node[51].appl 	generatedWSAs 	0
scalar MyScenario.node[51].appl 	receivedWSAs 	0
scalar MyScenario.node[51].nic.phy80211p 	busyTime 	1.5818181818182e-05
scalar MyScenario.node[51].nic.mac1609_4 	ReceivedUnicastPackets 	0
scalar MyScenario.node[51].nic.mac1609_4 	ReceivedBroadcasts 	1
scalar MyScenario.node[51].nic.mac1609_4 	SentPackets 	1
scalar MyScenario.node[51].nic.mac1609_4 	SNIRLostPackets 	2
scalar MyScenario.node[51].nic.mac1609_4 	RXTXLostPackets 	12
scalar MyScenario.node[51].nic.mac1609_4 	TotalLostPackets 	14
scalar MyScenario.node[51].nic.mac1609_4 	DroppedPacketsInMac 	0
scalar MyScenario.node[51].nic.mac1609_4 	TooLittleTime 	0
scalar MyScenario.node[51].nic.mac1609_4 	TimesIntoBackoff 	1
scalar MyScenario.node[51].nic.mac1609_4 	SlotsBackoff 	1
scalar MyScenario.node[51].nic.mac1609_4 	NumInternalContention 	0
scalar MyScenario.node[51].nic.mac1609_4 	totalBusyTime 	0.000697
scalar MyScenario.node[51].veinsmobility 	startTime 	1
scalar MyScenario.node[51].veinsmobility 	totalTime 	43
scalar MyScenario.node[51].veinsmobility 	stopTime 	45
scalar MyScenario.node[51].veinsmobility 	minSpeed 	2.1920838658465
scalar MyScenario.node[51].veinsmobility 	maxSpeed 	13.735267972597
scalar MyScenario.node[51].veinsmobility 	totalDistance 	477.35532456978
scalar MyScenario.node[51].veinsmobility 	totalCO2Emission 	149.23409599173
scalar MyScenario.node[148].appl 	generatedWSMs 	0
scalar MyScenario.node[148].appl 	receivedWSMs 	0
scalar MyScenario.node[148].appl 	generatedBSMs 	0
scalar MyScenario.node[148].appl 	receivedBSMs 	0
scalar MyScenario.node[148].appl 	generatedWSAs 	0
scalar MyScenario.node[148].appl 	receivedWSAs 	0
scalar MyScenario.node[148].nic.phy80211p 	busyTime 	5.2727272727273e-06
scalar MyScenario.node[148].nic.mac1609_4 	ReceivedUnicastPackets 	0
scalar MyScenario.node[148].nic.mac1609_4 	ReceivedBroadcasts 	0
scalar MyScenario.node[148].nic.mac1609_4 	SentPackets 	0
scalar MyScenario.node[148].nic.mac1609_4 	SNIRLostPackets 	1
scalar MyScenario.node[148].nic.mac1609_4 	RXTXLostPackets 	0
scalar MyScenario.node[148].nic.mac1609_4 	TotalLostPackets 	1
scalar MyScenario.node[148].nic.mac1609_4 	DroppedPacketsInMac 	0
scalar MyScenario.node[148].nic.mac1609_4 	TooLittleTime 	0
scalar MyScenario.node[148].nic.mac1609_4 	TimesIntoBackoff 	0
scalar MyScenario.node[148].nic.mac1609_4 	SlotsBackoff 	0
scalar MyScenario.node[148].nic.mac1609_4 	NumInternalContention 	0
scalar MyScenario.node[148].nic.mac1609_4 	totalBusyTime 	0.000232
scalar MyScenario.node[148].veinsmobility 	startTime 	1
scalar MyScenario.node[148].veinsmobility 	totalTime 	43
scalar MyScenario.node[148].veinsmobility 	stopTime 	45
scalar MyScenario.node[148].veinsmobility 	minSpeed 	2.9227904779786e-08
scalar MyScenario.node[148].veinsmobility 	maxSpeed 	13.7138270522
scalar MyScenario.node[148].veinsmobility 	totalDistance 	374.04691124361
scalar MyScenario.node[148].veinsmobility 	totalCO2Emission 	119.36109662654
scalar MyScenario.node[187].appl 	generatedWSMs 	0
scalar MyScenario.node[187].appl 	receivedWSMs 	0
scalar MyScenario.node[187].appl 	generatedBSMs 	0
scalar MyScenario.node[187].appl 	receivedBSMs 	0
scalar MyScenario.node[187].appl 	generatedWSAs 	0
scalar MyScenario.node[187].appl 	receivedWSAs 	0
scalar MyScenario.node[187].nic.phy80211p 	busyTime 	0
scalar MyScenario.node[187].nic.mac1609_4 	ReceivedUnicastPackets 	0
scalar MyScenario.node[187].nic.mac1609_4 	ReceivedBroadcasts 	0
scalar MyScenario.node[187].nic.mac1609_4 	SentPackets 	0
scalar MyScenario.node[187].nic.mac1609_4 	SNIRLostPackets 	0
scalar MyScenario.node[187].nic.mac1609_4 	RXTXLostPackets 	0
scalar MyScenario.node[187].nic.mac1609_4 	TotalLostPackets 	0
scalar MyScenario.node[187].nic.mac1609_4 	DroppedPacketsInMac 	0
scalar MyScenario.node[187].nic.mac1609_4 	TooLittleTime 	0
scalar MyScenario.node[187].nic.mac1609_4 	TimesIntoBackoff 	0
scalar MyScenario.node[187].nic.mac1609_4 	SlotsBackoff 	0
scalar MyScenario.node[187].nic.mac1609_4 	NumInternalContention 	0
scalar MyScenario.node[187].nic.mac1609_4 	totalBusyTime 	0
scalar MyScenario.node[187].veinsmobility 	startTime 	4
scalar MyScenario.node[187].veinsmobility 	totalTime 	40
scalar MyScenario.node[187].veinsmobility 	stopTime 	45
scalar MyScenario.node[187].veinsmobility 	minSpeed 	1.4332345210016
scalar MyScenario.node[187].veinsmobility 	maxSpeed 	13.899977449444
scalar MyScenario.node[187].veinsmobility 	totalDistance 	472.63198765988
scalar MyScenario.node[187].veinsmobility 	totalCO2Emission 	125.10178435731
scalar MyScenario.node[34].appl 	generatedWSMs 	0
scalar MyScenario.node[34].appl 	receivedWSMs 	0
scalar MyScenario.node[34].appl 	generatedBSMs 	0
scalar MyScenario.node[34].appl 	receivedBSMs 	0
scalar MyScenario.node[34].appl 	generatedWSAs 	0
scalar MyScenario.node[34].appl 	receivedWSAs 	0
scalar MyScenario.node[34].nic.phy80211p 	busyTime 	0
scalar MyScenario.node[34].nic.mac1609_4 	ReceivedUnicastPackets 	0
scalar MyScenario.node[34].nic.mac1609_4 	ReceivedBroadcasts 	0
scalar MyScenario.node[34].nic.mac1609_4 	SentPackets 	0
scalar MyScenario.node[34].nic.mac1609_4 	SNIRLostPackets 	0
scalar MyScenario.node[34].nic.mac1609_4 	RXTXLostPackets 	0
scalar MyScenario.node[34].nic.mac1609_4 	TotalLostPackets 	0
scalar MyScenario.node[34].nic.mac1609_4 	DroppedPacketsInMac 	0
scalar MyScenario.node[34].nic.mac1609_4 	TooLittleTime 	0
scalar MyScenario.node[34].nic.mac1609_4 	TimesIntoBackoff 	0
scalar MyScenario.node[34].nic.mac1609_4 	SlotsBackoff 	0
scalar MyScenario.node[34].nic.mac1609_4 	NumInternalContention 	0
scalar MyScenario.node[34].nic.mac1609_4 	totalBusyTime 	0
scalar MyScenario.node[34].veinsmobility 	startTime 	1
scalar MyScenario.node[34].veinsmobility 	totalTime 	44
scalar MyScenario.node[34].veinsmobility 	stopTime 	46
scalar MyScenario.node[34].veinsmobility 	minSpeed 	1.8615725140478
scalar MyScenario.node[34].veinsmobility 	maxSpeed 	13.899496921897
scalar MyScenario.node[34].veinsmobility 	totalDistance 	481.74946092051
scalar MyScenario.node[34].veinsmobility 	totalCO2Emission 	146.38411101594
scalar MyScenario.node[75].appl 	generatedWSMs 	1
scalar MyScenario.node[75].appl 	receivedWSMs 	1
scalar MyScenario.node[75].appl 	generatedBSMs 	0
scalar MyScenario.node[75].appl 	receivedBSMs 	0
scalar MyScenario.node[75].appl 	generatedWSAs 	0
scalar MyScenario.node[75].appl 	receivedWSAs 	0
scalar MyScenario.node[75].nic.phy80211p 	busyTime 	1.0311111111111e-05
scalar MyScenario.node[75].nic.mac1609_4 	ReceivedUnicastPackets 	0
scalar MyScenario.node[75].nic.mac1609_4 	ReceivedBroadcasts 	1
scalar MyScenario.node[75].nic.mac1609_4 	SentPackets 	1
scalar MyScenario.node[75].nic.mac1609_4 	SNIRLostPackets 	1
scalar MyScenario.node[75].nic.mac1609_4 	RXTXLostPackets 	13
scalar MyScenario.node[75].nic.mac1609_4 	TotalLostPackets 	14
scalar MyScenario.node[75].nic.mac1609_4 	DroppedPacketsInMac 	0
scalar MyScenario.node[75].nic.mac1609_4 	TooLittleTime 	0
scalar MyScenario.node[75].nic.mac1609_4 	TimesIntoBackoff 	1
scalar MyScenario.node[75].nic.mac1609_4 	SlotsBackoff 	0
scalar MyScenario.node[75].nic.mac1609_4 	NumInternalContention 	0
scalar MyScenario.node[75].nic.mac1609_4 	totalBusyTime 	0.000697000536
scalar MyScenario.node[75].veinsmobility 	startTime 	1
scalar MyScenario.node[75].veinsmobility 	totalTime 	44
scalar MyScenario.node[75].veinsmobility 	stopTime 	46
scalar MyScenario.node[75].veinsmobility 	minSpeed 	1.306320399628
scalar MyScenario.node[75].veinsmobility 	maxSpeed 	13.81919865082
scalar MyScenario.node[75].veinsmobility 	totalDistance 	471.70207109067
scalar MyScenario.node[75].veinsmobility 	totalCO2Emission 	153.5083278692
scalar MyScenario.node[102].appl 	generatedWSMs 	0
scalar MyScenario.node[102].appl 	receivedWSMs 	0
scalar MyScenario.node[102].appl 	generatedBSMs 	0
scalar MyScenario.node[102].appl 	receivedBSMs 	0
scalar MyScenario.node[102].appl 	generatedWSAs 	0
scalar MyScenario.node[102].appl 	receivedWSAs 	0
scalar MyScenario.node[102].nic.phy80211p 	busyTime 	0
scalar MyScenario.node[102].nic.mac1609_4 	ReceivedUnicastPackets 	0
scalar MyScenario.node[102].nic.mac1609_4 	ReceivedBroadcasts 	0
scalar MyScenario.node[102].nic.mac1609_4 	SentPackets 	0
scalar MyScenario.node[102].nic.mac1609_4 	SNIRLostPackets 	0
scalar MyScenario.node[102].nic.mac1609_4 	RXTXLostPackets 	0
scalar MyScenario.node[102].nic.mac1609_4 	TotalLostPackets 	0
scalar MyScenario.node[102].nic.mac1609_4 	DroppedPacketsInMac 	0
scalar MyScenario.node[102].nic.mac1609_4 	TooLittleTime 	0
scalar MyScenario.node[102].nic.mac1609_4 	TimesIntoBackoff 	0
scalar MyScenario.node[102].nic.mac1609_4 	SlotsBackoff 	0
scalar MyScenario.node[102].nic.mac1609_4 	NumInternalContention 	0
scalar MyScenario.node[102].nic.mac1609_4 	totalBusyTime 	0
scalar MyScenario.node[102].veinsmobility 	startTime 	1
scalar MyScenario.node[102].veinsmobility 	totalTime 	44
scalar MyScenario.node[102].veinsmobility 	stopTime 	46
scalar MyScenario.node[102].veinsmobility 	minSpeed 	2.1153152003419
scalar MyScenario.node[102].veinsmobility 	maxSpeed 	13.81407524189
scalar MyScenario.node[102].veinsmobility 	totalDistance 	467.06027405462
scalar MyScenario.node[102].veinsmobility 	totalCO2Emission 	171.63821554638
scalar MyScenario.node[173].appl 	generatedWSMs 	0
scalar MyScenario.node[173].appl 	receivedWSMs 	0
scalar MyScenario.node[173].appl 	generatedBSMs 	0
scalar MyScenario.node[173].appl 	receivedBSMs 	0
scalar MyScenario.node[173].appl 	generatedWSAs 	0
scalar MyScenario.node[173].appl 	receivedWSAs 	0
scalar MyScenario.node[173].nic.phy80211p 	busyTime 	0
scalar MyScenario.node[173].nic.mac1609_4 	ReceivedUnicastPackets 	0
scalar MyScenario.node[173].nic.mac1609_4 	ReceivedBroadcasts 	0
scalar MyScenario.node[173].nic.mac1609_4 	SentPackets 	0
scalar MyScenario.node[173].nic.mac1609_4 	SNIRLostPackets 	0
scalar MyScenario.node[173].nic.mac1609_4 	RXTXLostPackets 	0
scalar MyScenario.node[173].nic.mac1609_4 	TotalLostPackets 	0
scalar MyScenario.node[173].nic.mac1609_4 	DroppedPacketsInMac 	0
scalar MyScenario.node[173].nic.mac1609_4 	TooLittleTime 	0
scalar MyScenario.node[173].nic.mac1609_4 	TimesIntoBackoff 	0
scalar MyScenario.node[173].nic.mac1609_4 	SlotsBackoff 	0
scalar MyScenario.node[173].nic.mac1609_4 	NumInternalContention 	0
scalar MyScenario.node[173].nic.mac1609_4 	totalBusyTime 	0
scalar MyScenario.node[173].veinsmobility 	startTime 	4
scalar MyScenario.node[173].veinsmobility 	totalTime 	42
scalar MyScenario.node[173].veinsmobility 	stopTime 	47
scalar MyScenario.node[173].veinsmobility 	minSpeed 	1.493670227543
scalar MyScenario.node[173].veinsmobility 	maxSpeed 	13.879940042738
scalar MyScenario.node[173].veinsmobility 	totalDistance 	476.70273757683
scalar MyScenario.node[173].veinsmobility 	totalCO2Emission 	144.73908294159
scalar MyScenario.node[77].appl 	generatedWSMs 	1
scalar MyScenario.node[77].appl 	receivedWSMs 	4
scalar MyScenario.node[77].appl 	generatedBSMs 	0
scalar MyScenario.node[77].appl 	receivedBSMs 	0
scalar MyScenario.node[77].appl 	generatedWSAs 	0
scalar MyScenario.node[77].appl 	receivedWSAs 	0
scalar MyScenario.node[77].nic.phy80211p 	busyTime 	4.0347826086957e-05
scalar MyScenario.node[77].nic.mac1609_4 	ReceivedUnicastPackets 	0
scalar MyScenario.node[77].nic.mac1609_4 	ReceivedBroadcasts 	4
scalar MyScenario.node[77].nic.mac1609_4 	SentPackets 	1
scalar MyScenario.node[77].nic.mac1609_4 	SNIRLostPackets 	4
scalar MyScenario.node[77].nic.mac1609_4 	RXTXLostPackets 	7
scalar MyScenario.node[77].nic.mac1609_4 	TotalLostPackets 	11
scalar MyScenario.node[77].nic.mac1609_4 	DroppedPacketsInMac 	0
scalar MyScenario.node[77].nic.mac1609_4 	TooLittleTime 	0
scalar MyScenario.node[77].nic.mac1609_4 	TimesIntoBackoff 	1
scalar MyScenario.node[77].nic.mac1609_4 	SlotsBackoff 	0
scalar MyScenario.node[77].nic.mac1609_4 	NumInternalContention 	0
scalar MyScenario.node[77].nic.mac1609_4 	totalBusyTime 	0.001625
scalar MyScenario.node[77].veinsmobility 	startTime 	1
scalar MyScenario.node[77].veinsmobility 	totalTime 	45
scalar MyScenario.node[77].veinsmobility 	stopTime 	47
scalar MyScenario.node[77].veinsmobility 	minSpeed 	1.6984143021749
scalar MyScenario.node[77].veinsmobility 	maxSpeed 	13.82103041017
scalar MyScenario.node[77].veinsmobility 	totalDistance 	478.44307169742
scalar MyScenario.node[77].veinsmobility 	totalCO2Emission 	158.64080872054
scalar MyScenario.node[43].appl 	generatedWSMs 	0
scalar MyScenario.node[43].appl 	receivedWSMs 	0
scalar MyScenario.node[43].appl 	generatedBSMs 	0
scalar MyScenario.node[43].appl 	receivedBSMs 	0
scalar MyScenario.node[43].appl 	generatedWSAs 	0
scalar MyScenario.node[43].appl 	receivedWSAs 	0
scalar MyScenario.node[43].nic.phy80211p 	busyTime 	0
scalar MyScenario.node[43].nic.mac1609_4 	ReceivedUnicastPackets 	0
scalar MyScenario.node[43].nic.mac1609_4 	ReceivedBroadcasts 	0
scalar MyScenario.node[43].nic.mac1609_4 	SentPackets 	0
scalar MyScenario.node[43].nic.mac1609_4 	SNIRLostPackets 	0
scalar MyScenario.node[43].nic.mac1609_4 	RXTXLostPackets 	0
scalar MyScenario.node[43].nic.mac1609_4 	TotalLostPackets 	0
scalar MyScenario.node[43].nic.mac1609_4 	DroppedPacketsInMac 	0
scalar MyScenario.node[43].nic.mac1609_4 	TooLittleTime 	0
scalar MyScenario.node[43].nic.mac1609_4 	TimesIntoBackoff 	0
scalar MyScenario.node[43].nic.mac1609_4 	SlotsBackoff 	0
scalar MyScenario.node[43].nic.mac1609_4 	NumInternalContention 	0
scalar MyScenario.node[43].nic.mac1609_4 	totalBusyTime 	0
scalar MyScenario.node[43].veinsmobility 	startTime 	1
scalar MyScenario.node[43].veinsmobility 	totalTime 	47
scalar MyScenario.node[43].veinsmobility 	stopTime 	49
scalar MyScenario.node[43].veinsmobility 	minSpeed 	0.0055761430235118
scalar MyScenario.node[43].veinsmobility 	maxSpeed 	13.876473411219
scalar MyScenario.node[43].veinsmobility 	totalDistance 	466.86555091438
scalar MyScenario.node[43].veinsmobility 	totalCO2Emission 	156.86035682551
scalar MyScenario.node[24].appl 	generatedWSMs 	0
scalar MyScenario.node[24].appl 	receivedWSMs 	0
scalar MyScenario.node[24].appl 	generatedBSMs 	0
scalar MyScenario.node[24].appl 	receivedBSMs 	0
scalar MyScenario.node[24].appl 	generatedWSAs 	0
scalar MyScenario.node[24].appl 	receivedWSAs 	0
scalar MyScenario.node[24].nic.phy80211p 	busyTime 	0
scalar MyScenario.node[24].nic.mac1609_4 	ReceivedUnicastPackets 	0
scalar MyScenario.node[24].nic.mac1609_4 	ReceivedBroadcasts 	0
scalar MyScenario.node[24].nic.mac1609_4 	SentPackets 	0
scalar MyScenario.node[24].nic.mac1609_4 	SNIRLostPackets 	0
scalar MyScenario.node[24].nic.mac1609_4 	RXTXLostPackets 	0
scalar MyScenario.node[24].nic.mac1609_4 	TotalLostPackets 	0
scalar MyScenario.node[24].nic.mac1609_4 	DroppedPacketsInMac 	0
scalar MyScenario.node[24].nic.mac1609_4 	TooLittleTime 	0
scalar MyScenario.node[24].nic.mac1609_4 	TimesIntoBackoff 	0
scalar MyScenario.node[24].nic.mac1609_4 	SlotsBackoff 	0
scalar MyScenario.node[24].nic.mac1609_4 	NumInternalContention 	0
scalar MyScenario.node[24].nic.mac1609_4 	totalBusyTime 	0
scalar MyScenario.node[24].veinsmobility 	startTime 	1
scalar MyScenario.node[24].veinsmobility 	totalTime 	48
scalar MyScenario.node[24].veinsmobility 	stopTime 	50
scalar MyScenario.node[24].veinsmobility 	minSpeed 	2.375305156759
scalar MyScenario.node[24].veinsmobility 	maxSpeed 	13.798685144773
scalar MyScenario.node[24].veinsmobility 	totalDistance 	568.73610669556
scalar MyScenario.node[24].veinsmobility 	totalCO2Emission 	141.35345554675
scalar MyScenario.node[73].appl 	generatedWSMs 	1
scalar MyScenario.node[73].appl 	receivedWSMs 	2
scalar MyScenario.node[73].appl 	generatedBSMs 	0
scalar MyScenario.node[73].appl 	receivedBSMs 	0
scalar MyScenario.node[73].appl 	generatedWSAs 	0
scalar MyScenario.node[73].appl 	receivedWSAs 	0
scalar MyScenario.node[73].nic.phy80211p 	busyTime 	0.00011836734693878
scalar MyScenario.node[73].nic.mac1609_4 	ReceivedUnicastPackets 	0
scalar MyScenario.node[73].nic.mac1609_4 	ReceivedBroadcasts 	2
scalar MyScenario.node[73].nic.mac1609_4 	SentPackets 	1
scalar MyScenario.node[73].nic.mac1609_4 	SNIRLostPackets 	23
scalar MyScenario.node[73].nic.mac1609_4 	RXTXLostPackets 	0
scalar MyScenario.node[73].nic.mac1609_4 	TotalLostPackets 	23
scalar MyScenario.node[73].nic.mac1609_4 	DroppedPacketsInMac 	0
scalar MyScenario.node[73].nic.mac1609_4 	TooLittleTime 	0
scalar MyScenario.node[73].nic.mac1609_4 	TimesIntoBackoff 	1
scalar MyScenario.node[73].nic.mac1609_4 	SlotsBackoff 	1
scalar MyScenario.node[73].nic.mac1609_4 	NumInternalContention 	0
scalar MyScenario.node[73].nic.mac1609_4 	totalBusyTime 	0.001625
scalar MyScenario.node[73].veinsmobility 	startTime 	1
scalar MyScenario.node[73].veinsmobility 	totalTime 	48
scalar MyScenario.node[73].veinsmobility 	stopTime 	50
scalar MyScenario.node[73].veinsmobility 	minSpeed 	1.9948394750012
scalar MyScenario.node[73].veinsmobility 	maxSpeed 	13.87223261639
scalar MyScenario.node[73].veinsmobility 	totalDistance 	572.36918616132
scalar MyScenario.node[73].veinsmobility 	totalCO2Emission 	145.52794440182
scalar MyScenario.node[82].appl 	generatedWSMs 	0
scalar MyScenario.node[82].appl 	receivedWSMs 	0
scalar MyScenario.node[82].appl 	generatedBSMs 	0
scalar MyScenario.node[82].appl 	receivedBSMs 	0
scalar MyScenario.node[82].appl 	generatedWSAs 	0
scalar MyScenario.node[82].appl 	receivedWSAs 	0
scalar MyScenario.node[82].nic.phy80211p 	busyTime 	0
scalar MyScenario.node[82].nic.mac1609_4 	ReceivedUnicastPackets 	0
scalar MyScenario.node[82].nic.mac1609_4 	ReceivedBroadcasts 	0
scalar MyScenario.node[82].nic.mac1609_4 	SentPackets 	0
scalar MyScenario.node[82].nic.mac1609_4 	SNIRLostPackets 	0
scalar MyScenario.node[82].nic.mac1609_4 	RXTXLostPackets 	0
scalar MyScenario.node[82].nic.mac1609_4 	TotalLostPackets 	0
scalar MyScenario.node[82].nic.mac1609_4 	DroppedPacketsInMac 	0
scalar MyScenario.node[82].nic.mac1609_4 	TooLittleTime 	0
scalar MyScenario.node[82].nic.mac1609_4 	TimesIntoBackoff 	0
scalar MyScenario.node[82].nic.mac1609_4 	SlotsBackoff 	0
scalar MyScenario.node[82].nic.mac1609_4 	NumInternalContention 	0
scalar MyScenario.node[82].nic.mac1609_4 	totalBusyTime 	0
scalar MyScenario.node[82].veinsmobility 	startTime 	1
scalar MyScenario.node[82].veinsmobility 	totalTime 	48
scalar MyScenario.node[82].veinsmobility 	stopTime 	50
scalar MyScenario.node[82].veinsmobility 	minSpeed 	1.3285244978731
scalar MyScenario.node[82].veinsmobility 	maxSpeed 	13.845174016943
scalar MyScenario.node[82].veinsmobility 	totalDistance 	578.58358015523
scalar MyScenario.node[82].veinsmobility 	totalCO2Emission 	135.47166752776
scalar MyScenario.node[144].appl 	generatedWSMs 	0
scalar MyScenario.node[144].appl 	receivedWSMs 	0
scalar MyScenario.node[144].appl 	generatedBSMs 	0
scalar MyScenario.node[144].appl 	receivedBSMs 	0
scalar MyScenario.node[144].appl 	generatedWSAs 	0
scalar MyScenario.node[144].appl 	receivedWSAs 	0
scalar MyScenario.node[144].nic.phy80211p 	busyTime 	2.3673469387755e-05
scalar MyScenario.node[144].nic.mac1609_4 	ReceivedUnicastPackets 	0
scalar MyScenario.node[144].nic.mac1609_4 	ReceivedBroadcasts 	0
scalar MyScenario.node[144].nic.mac1609_4 	SentPackets 	0
scalar MyScenario.node[144].nic.mac1609_4 	SNIRLostPackets 	5
scalar MyScenario.node[144].nic.mac1609_4 	RXTXLostPackets 	0
scalar MyScenario.node[144].nic.mac1609_4 	TotalLostPackets 	5
scalar MyScenario.node[144].nic.mac1609_4 	DroppedPacketsInMac 	0
scalar MyScenario.node[144].nic.mac1609_4 	TooLittleTime 	0
scalar MyScenario.node[144].nic.mac1609_4 	TimesIntoBackoff 	0
scalar MyScenario.node[144].nic.mac1609_4 	SlotsBackoff 	0
scalar MyScenario.node[144].nic.mac1609_4 	NumInternalContention 	0
scalar MyScenario.node[144].nic.mac1609_4 	totalBusyTime 	0.000232
scalar MyScenario.node[144].veinsmobility 	startTime 	1
scalar MyScenario.node[144].veinsmobility 	totalTime 	48
scalar MyScenario.node[144].veinsmobility 	stopTime 	50
scalar MyScenario.node[144].veinsmobility 	minSpeed 	2.0791788902599
scalar MyScenario.node[144].veinsmobility 	maxSpeed 	13.870365428668
scalar MyScenario.node[144].veinsmobility 	totalDistance 	573.20099584689
scalar MyScenario.node[144].veinsmobility 	totalCO2Emission 	146.81143594492
scalar MyScenario.node[2].appl 	generatedWSMs 	0
scalar MyScenario.node[2].appl 	receivedWSMs 	0
scalar MyScenario.node[2].appl 	generatedBSMs 	0
scalar MyScenario.node[2].appl 	receivedBSMs 	0
scalar MyScenario.node[2].appl 	generatedWSAs 	0
scalar MyScenario.node[2].appl 	receivedWSAs 	0
scalar MyScenario.node[2].nic.phy80211p 	busyTime 	0
scalar MyScenario.node[2].nic.mac1609_4 	ReceivedUnicastPackets 	0
scalar MyScenario.node[2].nic.mac1609_4 	ReceivedBroadcasts 	0
scalar MyScenario.node[2].nic.mac1609_4 	SentPackets 	0
scalar MyScenario.node[2].nic.mac1609_4 	SNIRLostPackets 	0
scalar MyScenario.node[2].nic.mac1609_4 	RXTXLostPackets 	0
scalar MyScenario.node[2].nic.mac1609_4 	TotalLostPackets 	0
scalar MyScenario.node[2].nic.mac1609_4 	DroppedPacketsInMac 	0
scalar MyScenario.node[2].nic.mac1609_4 	TooLittleTime 	0
scalar MyScenario.node[2].nic.mac1609_4 	TimesIntoBackoff 	0
scalar MyScenario.node[2].nic.mac1609_4 	SlotsBackoff 	0
scalar MyScenario.node[2].nic.mac1609_4 	NumInternalContention 	0
scalar MyScenario.node[2].nic.mac1609_4 	totalBusyTime 	0
scalar MyScenario.node[2].veinsmobility 	startTime 	1
scalar MyScenario.node[2].veinsmobility 	totalTime 	49
scalar MyScenario.node[2].veinsmobility 	stopTime 	51
scalar MyScenario.node[2].veinsmobility 	minSpeed 	2.5810525485314
scalar MyScenario.node[2].veinsmobility 	maxSpeed 	13.895177201182
scalar MyScenario.node[2].veinsmobility 	totalDistance 	560.0999563405
scalar MyScenario.node[2].veinsmobility 	totalCO2Emission 	155.74122900669
scalar MyScenario.node[105].appl 	generatedWSMs 	0
scalar MyScenario.node[105].appl 	receivedWSMs 	0
scalar MyScenario.node[105].appl 	generatedBSMs 	0
scalar MyScenario.node[105].appl 	receivedBSMs 	0
scalar MyScenario.node[105].appl 	generatedWSAs 	0
scalar MyScenario.node[105].appl 	receivedWSAs 	0
scalar MyScenario.node[105].nic.phy80211p 	busyTime 	4.64e-05
scalar MyScenario.node[105].nic.mac1609_4 	ReceivedUnicastPackets 	0
scalar MyScenario.node[105].nic.mac1609_4 	ReceivedBroadcasts 	0
scalar MyScenario.node[105].nic.mac1609_4 	SentPackets 	0
scalar MyScenario.node[105].nic.mac1609_4 	SNIRLostPackets 	10
scalar MyScenario.node[105].nic.mac1609_4 	RXTXLostPackets 	0
scalar MyScenario.node[105].nic.mac1609_4 	TotalLostPackets 	10
scalar MyScenario.node[105].nic.mac1609_4 	DroppedPacketsInMac 	0
scalar MyScenario.node[105].nic.mac1609_4 	TooLittleTime 	0
scalar MyScenario.node[105].nic.mac1609_4 	TimesIntoBackoff 	0
scalar MyScenario.node[105].nic.mac1609_4 	SlotsBackoff 	0
scalar MyScenario.node[105].nic.mac1609_4 	NumInternalContention 	0
scalar MyScenario.node[105].nic.mac1609_4 	totalBusyTime 	0.000232
scalar MyScenario.node[105].veinsmobility 	startTime 	1
scalar MyScenario.node[105].veinsmobility 	totalTime 	49
scalar MyScenario.node[105].veinsmobility 	stopTime 	51
scalar MyScenario.node[105].veinsmobility 	minSpeed 	1.6469362293137
scalar MyScenario.node[105].veinsmobility 	maxSpeed 	13.843859600695
scalar MyScenario.node[105].veinsmobility 	totalDistance 	577.02064177408
scalar MyScenario.node[105].veinsmobility 	totalCO2Emission 	155.91633645086
scalar MyScenario.node[116].appl 	generatedWSMs 	0
scalar MyScenario.node[116].appl 	receivedWSMs 	0
scalar MyScenario.node[116].appl 	generatedBSMs 	0
scalar MyScenario.node[116].appl 	receivedBSMs 	0
scalar MyScenario.node[116].appl 	generatedWSAs 	0
scalar MyScenario.node[116].appl 	receivedWSAs 	0
scalar MyScenario.node[116].nic.phy80211p 	busyTime 	0
scalar MyScenario.node[116].nic.mac1609_4 	ReceivedUnicastPackets 	0
scalar MyScenario.node[116].nic.mac1609_4 	ReceivedBroadcasts 	0
scalar MyScenario.node[116].nic.mac1609_4 	SentPackets 	0
scalar MyScenario.node[116].nic.mac1609_4 	SNIRLostPackets 	0
scalar MyScenario.node[116].nic.mac1609_4 	RXTXLostPackets 	0
scalar MyScenario.node[116].nic.mac1609_4 	TotalLostPackets 	0
scalar MyScenario.node[116].nic.mac1609_4 	DroppedPacketsInMac 	0
scalar MyScenario.node[116].nic.mac1609_4 	TooLittleTime 	0
scalar MyScenario.node[116].nic.mac1609_4 	TimesIntoBackoff 	0
scalar MyScenario.node[116].nic.mac1609_4 	SlotsBackoff 	0
scalar MyScenario.node[116].nic.mac1609_4 	NumInternalContention 	0
scalar MyScenario.node[116].nic.mac1609_4 	totalBusyTime 	0
scalar MyScenario.node[116].veinsmobility 	startTime 	1
scalar MyScenario.node[116].veinsmobility 	totalTime 	50
scalar MyScenario.node[116].veinsmobility 	stopTime 	52
scalar MyScenario.node[116].veinsmobility 	minSpeed 	0.040291812919206
scalar MyScenario.node[116].veinsmobility 	maxSpeed 	13.791987012816
scalar MyScenario.node[116].veinsmobility 	totalDistance 	485.11494259353
scalar MyScenario.node[116].veinsmobility 	totalCO2Emission 	166.10219794809
scalar MyScenario.node[62].appl 	generatedWSMs 	1
scalar MyScenario.node[62].appl 	receivedWSMs 	1
scalar MyScenario.node[62].appl 	generatedBSMs 	0
scalar MyScenario.node[62].appl 	receivedBSMs 	0
scalar MyScenario.node[62].appl 	generatedWSAs 	0
scalar MyScenario.node[62].appl 	receivedWSAs 	0
scalar MyScenario.node[62].nic.phy80211p 	busyTime 	2.2307692307692e-05
scalar MyScenario.node[62].nic.mac1609_4 	ReceivedUnicastPackets 	0
scalar MyScenario.node[62].nic.mac1609_4 	ReceivedBroadcasts 	1
scalar MyScenario.node[62].nic.mac1609_4 	SentPackets 	1
scalar MyScenario.node[62].nic.mac1609_4 	SNIRLostPackets 	4
scalar MyScenario.node[62].nic.mac1609_4 	RXTXLostPackets 	12
scalar MyScenario.node[62].nic.mac1609_4 	TotalLostPackets 	16
scalar MyScenario.node[62].nic.mac1609_4 	DroppedPacketsInMac 	0
scalar MyScenario.node[62].nic.mac1609_4 	TooLittleTime 	0
scalar MyScenario.node[62].nic.mac1609_4 	TimesIntoBackoff 	1
scalar MyScenario.node[62].nic.mac1609_4 	SlotsBackoff 	1
scalar MyScenario.node[62].nic.mac1609_4 	NumInternalContention 	0
scalar MyScenario.node[62].nic.mac1609_4 	totalBusyTime 	0.000929
scalar MyScenario.node[62].veinsmobility 	startTime 	1
scalar MyScenario.node[62].veinsmobility 	totalTime 	51
scalar MyScenario.node[62].veinsmobility 	stopTime 	53
scalar MyScenario.node[62].veinsmobility 	minSpeed 	1.7725108132232
scalar MyScenario.node[62].veinsmobility 	maxSpeed 	13.887499013706
scalar MyScenario.node[62].veinsmobility 	totalDistance 	566.2875159631
scalar MyScenario.node[62].veinsmobility 	totalCO2Emission 	181.1845781226
scalar MyScenario.node[94].appl 	generatedWSMs 	0
scalar MyScenario.node[94].appl 	receivedWSMs 	0
scalar MyScenario.node[94].appl 	generatedBSMs 	0
scalar MyScenario.node[94].appl 	receivedBSMs 	0
scalar MyScenario.node[94].appl 	generatedWSAs 	0
scalar MyScenario.node[94].appl 	receivedWSAs 	0
scalar MyScenario.node[94].nic.phy80211p 	busyTime 	0
scalar MyScenario.node[94].nic.mac1609_4 	ReceivedUnicastPackets 	0
scalar MyScenario.node[94].nic.mac1609_4 	ReceivedBroadcasts 	0
scalar MyScenario.node[94].nic.mac1609_4 	SentPackets 	0
scalar MyScenario.node[94].nic.mac1609_4 	SNIRLostPackets 	0
scalar MyScenario.node[94].nic.mac1609_4 	RXTXLostPackets 	0
scalar MyScenario.node[94].nic.mac1609_4 	TotalLostPackets 	0
scalar MyScenario.node[94].nic.mac1609_4 	DroppedPacketsInMac 	0
scalar MyScenario.node[94].nic.mac1609_4 	TooLittleTime 	0
scalar MyScenario.node[94].nic.mac1609_4 	TimesIntoBackoff 	0
scalar MyScenario.node[94].nic.mac1609_4 	SlotsBackoff 	0
scalar MyScenario.node[94].nic.mac1609_4 	NumInternalContention 	0
scalar MyScenario.node[94].nic.mac1609_4 	totalBusyTime 	0
scalar MyScenario.node[94].veinsmobility 	startTime 	1
scalar MyScenario.node[94].veinsmobility 	totalTime 	51
scalar MyScenario.node[94].veinsmobility 	stopTime 	53
scalar MyScenario.node[94].veinsmobility 	minSpeed 	2.4488450704608
scalar MyScenario.node[94].veinsmobility 	maxSpeed 	13.779735295475
scalar MyScenario.node[94].veinsmobility 	totalDistance 	556.54235582873
scalar MyScenario.node[94].veinsmobility 	totalCO2Emission 	172.52177544745
scalar MyScenario.node[120].appl 	generatedWSMs 	0
scalar MyScenario.node[120].appl 	receivedWSMs 	0
scalar MyScenario.node[120].appl 	generatedBSMs 	0
scalar MyScenario.node[120].appl 	receivedBSMs 	0
scalar MyScenario.node[120].appl 	generatedWSAs 	0
scalar MyScenario.node[120].appl 	receivedWSAs 	0
scalar MyScenario.node[120].nic.phy80211p 	busyTime 	7.5846153846154e-05
scalar MyScenario.node[120].nic.mac1609_4 	ReceivedUnicastPackets 	0
scalar MyScenario.node[120].nic.mac1609_4 	ReceivedBroadcasts 	0
scalar MyScenario.node[120].nic.mac1609_4 	SentPackets 	0
scalar MyScenario.node[120].nic.mac1609_4 	SNIRLostPackets 	17
scalar MyScenario.node[120].nic.mac1609_4 	RXTXLostPackets 	0
scalar MyScenario.node[120].nic.mac1609_4 	TotalLostPackets 	17
scalar MyScenario.node[120].nic.mac1609_4 	DroppedPacketsInMac 	0
scalar MyScenario.node[120].nic.mac1609_4 	TooLittleTime 	0
scalar MyScenario.node[120].nic.mac1609_4 	TimesIntoBackoff 	0
scalar MyScenario.node[120].nic.mac1609_4 	SlotsBackoff 	0
scalar MyScenario.node[120].nic.mac1609_4 	NumInternalContention 	0
scalar MyScenario.node[120].nic.mac1609_4 	totalBusyTime 	0.000928
scalar MyScenario.node[120].veinsmobility 	startTime 	1
scalar MyScenario.node[120].veinsmobility 	totalTime 	51
scalar MyScenario.node[120].veinsmobility 	stopTime 	53
scalar MyScenario.node[120].veinsmobility 	minSpeed 	2.0587194488849
scalar MyScenario.node[120].veinsmobility 	maxSpeed 	13.870810032659
scalar MyScenario.node[120].veinsmobility 	totalDistance 	582.52298294505
scalar MyScenario.node[120].veinsmobility 	totalCO2Emission 	157.4567536132
scalar MyScenario.node[78].appl 	generatedWSMs 	1
scalar MyScenario.node[78].appl 	receivedWSMs 	6
scalar MyScenario.node[78].appl 	generatedBSMs 	0
scalar MyScenario.node[78].appl 	receivedBSMs 	0
scalar MyScenario.node[78].appl 	generatedWSAs 	0
scalar MyScenario.node[78].appl 	receivedWSAs 	0
scalar MyScenario.node[78].nic.phy80211p 	busyTime 	7.0037735849057e-05
scalar MyScenario.node[78].nic.mac1609_4 	ReceivedUnicastPackets 	0
scalar MyScenario.node[78].nic.mac1609_4 	ReceivedBroadcasts 	6
scalar MyScenario.node[78].nic.mac1609_4 	SentPackets 	1
scalar MyScenario.node[78].nic.mac1609_4 	SNIRLostPackets 	10
scalar MyScenario.node[78].nic.mac1609_4 	RXTXLostPackets 	7
scalar MyScenario.node[78].nic.mac1609_4 	TotalLostPackets 	17
scalar MyScenario.node[78].nic.mac1609_4 	DroppedPacketsInMac 	0
scalar MyScenario.node[78].nic.mac1609_4 	TooLittleTime 	0
scalar MyScenario.node[78].nic.mac1609_4 	TimesIntoBackoff 	1
scalar MyScenario.node[78].nic.mac1609_4 	SlotsBackoff 	2
scalar MyScenario.node[78].nic.mac1609_4 	NumInternalContention 	0
scalar MyScenario.node[78].nic.mac1609_4 	totalBusyTime 	0.002553169315
scalar MyScenario.node[78].veinsmobility 	startTime 	1
scalar MyScenario.node[78].veinsmobility 	totalTime 	52
scalar MyScenario.node[78].veinsmobility 	stopTime 	54
scalar MyScenario.node[78].veinsmobility 	minSpeed 	1.5537735978374
scalar MyScenario.node[78].veinsmobility 	maxSpeed 	13.889591783867
scalar MyScenario.node[78].veinsmobility 	totalDistance 	578.08539626287
scalar MyScenario.node[78].veinsmobility 	totalCO2Emission 	163.7903462883
scalar MyScenario.node[190].appl 	generatedWSMs 	0
scalar MyScenario.node[190].appl 	receivedWSMs 	0
scalar MyScenario.node[190].appl 	generatedBSMs 	0
scalar MyScenario.node[190].appl 	receivedBSMs 	0
scalar MyScenario.node[190].appl 	generatedWSAs 	0
scalar MyScenario.node[190].appl 	receivedWSAs 	0
scalar MyScenario.node[190].nic.phy80211p 	busyTime 	0
scalar MyScenario.node[190].nic.mac1609_4 	ReceivedUnicastPackets 	0
scalar MyScenario.node[190].nic.mac1609_4 	ReceivedBroadcasts 	0
scalar MyScenario.node[190].nic.mac1609_4 	SentPackets 	0
scalar MyScenario.node[190].nic.mac1609_4 	SNIRLostPackets 	0
scalar MyScenario.node[190].nic.mac1609_4 	RXTXLostPackets 	0
scalar MyScenario.node[190].nic.mac1609_4 	TotalLostPackets 	0
scalar MyScenario.node[190].nic.mac1609_4 	DroppedPacketsInMac 	0
scalar MyScenario.node[190].nic.mac1609_4 	TooLittleTime 	0
scalar MyScenario.node[190].nic.mac1609_4 	TimesIntoBackoff 	0
scalar MyScenario.node[190].nic.mac1609_4 	SlotsBackoff 	0
scalar MyScenario.node[190].nic.mac1609_4 	NumInternalContention 	0
scalar MyScenario.node[190].nic.mac1609_4 	totalBusyTime 	0
scalar MyScenario.node[190].veinsmobility 	startTime 	4
scalar MyScenario.node[190].veinsmobility 	totalTime 	50
scalar MyScenario.node[190].veinsmobility 	stopTime 	55
scalar MyScenario.node[190].veinsmobility 	minSpeed 	2.4389531961642
scalar MyScenario.node[190].veinsmobility 	maxSpeed 	13.804277172615
scalar MyScenario.node[190].veinsmobility 	totalDistance 	575.4203956036
scalar MyScenario.node[190].veinsmobility 	totalCO2Emission 	162.61923242866
scalar MyScenario.node[137].appl 	generatedWSMs 	0
scalar MyScenario.node[137].appl 	receivedWSMs 	0
scalar MyScenario.node[137].appl 	generatedBSMs 	0
scalar MyScenario.node[137].appl 	receivedBSMs 	0
scalar MyScenario.node[137].appl 	generatedWSAs 	0
scalar MyScenario.node[137].appl 	receivedWSAs 	0
scalar MyScenario.node[137].nic.phy80211p 	busyTime 	0
scalar MyScenario.node[137].nic.mac1609_4 	ReceivedUnicastPackets 	0
scalar MyScenario.node[137].nic.mac1609_4 	ReceivedBroadcasts 	0
scalar MyScenario.node[137].nic.mac1609_4 	SentPackets 	0
scalar MyScenario.node[137].nic.mac1609_4 	SNIRLostPackets 	0
scalar MyScenario.node[137].nic.mac1609_4 	RXTXLostPackets 	0
scalar MyScenario.node[137].nic.mac1609_4 	TotalLostPackets 	0
scalar MyScenario.node[137].nic.mac1609_4 	DroppedPacketsInMac 	0
scalar MyScenario.node[137].nic.mac1609_4 	TooLittleTime 	0
scalar MyScenario.node[137].nic.mac1609_4 	TimesIntoBackoff 	0
scalar MyScenario.node[137].nic.mac1609_4 	SlotsBackoff 	0
scalar MyScenario.node[137].nic.mac1609_4 	NumInternalContention 	0
scalar MyScenario.node[137].nic.mac1609_4 	totalBusyTime 	0
scalar MyScenario.node[137].veinsmobility 	startTime 	1
scalar MyScenario.node[137].veinsmobility 	totalTime 	53
scalar MyScenario.node[137].veinsmobility 	stopTime 	55
scalar MyScenario.node[137].veinsmobility 	minSpeed 	3.9214473659316e-07
scalar MyScenario.node[137].veinsmobility 	maxSpeed 	13.889404928102
scalar MyScenario.node[137].veinsmobility 	totalDistance 	465.12388328635
scalar MyScenario.node[137].veinsmobility 	totalCO2Emission 	156.60857667885
scalar MyScenario.node[163].appl 	generatedWSMs 	1
scalar MyScenario.node[163].appl 	receivedWSMs 	6
scalar MyScenario.node[163].appl 	generatedBSMs 	0
scalar MyScenario.node[163].appl 	receivedBSMs 	0
scalar MyScenario.node[163].appl 	generatedWSAs 	0
scalar MyScenario.node[163].appl 	receivedWSAs 	0
scalar MyScenario.node[163].nic.phy80211p 	busyTime 	5.9137254901961e-05
scalar MyScenario.node[163].nic.mac1609_4 	ReceivedUnicastPackets 	0
scalar MyScenario.node[163].nic.mac1609_4 	ReceivedBroadcasts 	6
scalar MyScenario.node[163].nic.mac1609_4 	SentPackets 	1
scalar MyScenario.node[163].nic.mac1609_4 	SNIRLostPackets 	7
scalar MyScenario.node[163].nic.mac1609_4 	RXTXLostPackets 	2
scalar MyScenario.node[163].nic.mac1609_4 	TotalLostPackets 	9
scalar MyScenario.node[163].nic.mac1609_4 	DroppedPacketsInMac 	0
scalar MyScenario.node[163].nic.mac1609_4 	TooLittleTime 	0
scalar MyScenario.node[163].nic.mac1609_4 	TimesIntoBackoff 	1
scalar MyScenario.node[163].nic.mac1609_4 	SlotsBackoff 	1
scalar MyScenario.node[163].nic.mac1609_4 	NumInternalContention 	0
scalar MyScenario.node[163].nic.mac1609_4 	totalBusyTime 	0.002321
scalar MyScenario.node[163].veinsmobility 	startTime 	4
scalar MyScenario.node[163].veinsmobility 	totalTime 	50
scalar MyScenario.node[163].veinsmobility 	stopTime 	55
scalar MyScenario.node[163].veinsmobility 	minSpeed 	1.4298094831407
scalar MyScenario.node[163].veinsmobility 	maxSpeed 	13.854160231398
scalar MyScenario.node[163].veinsmobility 	totalDistance 	561.3921285099
scalar MyScenario.node[163].veinsmobility 	totalCO2Emission 	159.88367382855
scalar MyScenario.node[200].appl 	generatedWSMs 	0
scalar MyScenario.node[200].appl 	receivedWSMs 	0
scalar MyScenario.node[200].appl 	generatedBSMs 	0
scalar MyScenario.node[200].appl 	receivedBSMs 	0
scalar MyScenario.node[200].appl 	generatedWSAs 	0
scalar MyScenario.node[200].appl 	receivedWSAs 	0
scalar MyScenario.node[200].nic.phy80211p 	busyTime 	0
scalar MyScenario.node[200].nic.mac1609_4 	ReceivedUnicastPackets 	0
scalar MyScenario.node[200].nic.mac1609_4 	ReceivedBroadcasts 	0
scalar MyScenario.node[200].nic.mac1609_4 	SentPackets 	0
scalar MyScenario.node[200].nic.mac1609_4 	SNIRLostPackets 	0
scalar MyScenario.node[200].nic.mac1609_4 	RXTXLostPackets 	0
scalar MyScenario.node[200].nic.mac1609_4 	TotalLostPackets 	0
scalar MyScenario.node[200].nic.mac1609_4 	DroppedPacketsInMac 	0
scalar MyScenario.node[200].nic.mac1609_4 	TooLittleTime 	0
scalar MyScenario.node[200].nic.mac1609_4 	TimesIntoBackoff 	0
scalar MyScenario.node[200].nic.mac1609_4 	SlotsBackoff 	0
scalar MyScenario.node[200].nic.mac1609_4 	NumInternalContention 	0
scalar MyScenario.node[200].nic.mac1609_4 	totalBusyTime 	0
scalar MyScenario.node[200].veinsmobility 	startTime 	11
scalar MyScenario.node[200].veinsmobility 	totalTime 	43
scalar MyScenario.node[200].veinsmobility 	stopTime 	55
scalar MyScenario.node[200].veinsmobility 	minSpeed 	0.004993499090276
scalar MyScenario.node[200].veinsmobility 	maxSpeed 	13.837003145996
scalar MyScenario.node[200].veinsmobility 	totalDistance 	469.13586493366
scalar MyScenario.node[200].veinsmobility 	totalCO2Emission 	108.99943333481
scalar MyScenario.node[33].appl 	generatedWSMs 	0
scalar MyScenario.node[33].appl 	receivedWSMs 	0
scalar MyScenario.node[33].appl 	generatedBSMs 	0
scalar MyScenario.node[33].appl 	receivedBSMs 	0
scalar MyScenario.node[33].appl 	generatedWSAs 	0
scalar MyScenario.node[33].appl 	receivedWSAs 	0
scalar MyScenario.node[33].nic.phy80211p 	busyTime 	0
scalar MyScenario.node[33].nic.mac1609_4 	ReceivedUnicastPackets 	0
scalar MyScenario.node[33].nic.mac1609_4 	ReceivedBroadcasts 	0
scalar MyScenario.node[33].nic.mac1609_4 	SentPackets 	0
scalar MyScenario.node[33].nic.mac1609_4 	SNIRLostPackets 	0
scalar MyScenario.node[33].nic.mac1609_4 	RXTXLostPackets 	0
scalar MyScenario.node[33].nic.mac1609_4 	TotalLostPackets 	0
scalar MyScenario.node[33].nic.mac1609_4 	DroppedPacketsInMac 	0
scalar MyScenario.node[33].nic.mac1609_4 	TooLittleTime 	0
scalar MyScenario.node[33].nic.mac1609_4 	TimesIntoBackoff 	0
scalar MyScenario.node[33].nic.mac1609_4 	SlotsBackoff 	0
scalar MyScenario.node[33].nic.mac1609_4 	NumInternalContention 	0
scalar MyScenario.node[33].nic.mac1609_4 	totalBusyTime 	0
[...]
scalar MyScenario.node[204].nic.mac1609_4 	SentPackets 	0
scalar MyScenario.node[204].nic.mac1609_4 	SNIRLostPackets 	0
scalar MyScenario.node[204].nic.mac1609_4 	RXTXLostPackets 	0
scalar MyScenario.node[204].nic.mac1609_4 	TotalLostPackets 	0
scalar MyScenario.node[204].nic.mac1609_4 	DroppedPacketsInMac 	0
scalar MyScenario.node[204].nic.mac1609_4 	TooLittleTime 	0
scalar MyScenario.node[204].nic.mac1609_4 	TimesIntoBackoff 	0
scalar MyScenario.node[204].nic.mac1609_4 	SlotsBackoff 	0
scalar MyScenario.node[204].nic.mac1609_4 	NumInternalContention 	0
scalar MyScenario.node[204].nic.mac1609_4 	totalBusyTime 	0
scalar MyScenario.node[204].veinsmobility 	startTime 	15
scalar MyScenario.node[204].veinsmobility 	totalTime 	112
scalar MyScenario.node[204].veinsmobility 	stopTime 	128
scalar MyScenario.node[204].veinsmobility 	minSpeed 	0.3992489678336
scalar MyScenario.node[204].veinsmobility 	maxSpeed 	13.867088448466
scalar MyScenario.node[204].veinsmobility 	totalDistance 	1355.6945822078
scalar MyScenario.node[204].veinsmobility 	totalCO2Emission 	302.47209814546
scalar MyScenario.node[109].appl 	generatedWSMs 	0
scalar MyScenario.node[109].appl 	receivedWSMs 	0
scalar MyScenario.node[109].appl 	generatedBSMs 	0
scalar MyScenario.node[109].appl 	receivedBSMs 	0
scalar MyScenario.node[109].appl 	generatedWSAs 	0
scalar MyScenario.node[109].appl 	receivedWSAs 	0
scalar MyScenario.node[109].nic.phy80211p 	busyTime 	0
scalar MyScenario.node[109].nic.mac1609_4 	ReceivedUnicastPackets 	0
scalar MyScenario.node[109].nic.mac1609_4 	ReceivedBroadcasts 	0
scalar MyScenario.node[109].nic.mac1609_4 	SentPackets 	0
scalar MyScenario.node[109].nic.mac1609_4 	SNIRLostPackets 	0
scalar MyScenario.node[109].nic.mac1609_4 	RXTXLostPackets 	0
scalar MyScenario.node[109].nic.mac1609_4 	TotalLostPackets 	0
scalar MyScenario.node[109].nic.mac1609_4 	DroppedPacketsInMac 	0
scalar MyScenario.node[109].nic.mac1609_4 	TooLittleTime 	0
scalar MyScenario.node[109].nic.mac1609_4 	TimesIntoBackoff 	0
scalar MyScenario.node[109].nic.mac1609_4 	SlotsBackoff 	0
scalar MyScenario.node[109].nic.mac1609_4 	NumInternalContention 	0
scalar MyScenario.node[109].nic.mac1609_4 	totalBusyTime 	0
scalar MyScenario.node[109].veinsmobility 	startTime 	1
scalar MyScenario.node[109].veinsmobility 	totalTime 	126
scalar MyScenario.node[109].veinsmobility 	stopTime 	128
scalar MyScenario.node[109].veinsmobility 	minSpeed 	3.7194534175779e-07
scalar MyScenario.node[109].veinsmobility 	maxSpeed 	13.890437563043
scalar MyScenario.node[109].veinsmobility 	totalDistance 	1266.5794216005
scalar MyScenario.node[109].veinsmobility 	totalCO2Emission 	403.55976396837
scalar MyScenario.node[15].appl 	generatedWSMs 	0
scalar MyScenario.node[15].appl 	receivedWSMs 	0
scalar MyScenario.node[15].appl 	generatedBSMs 	0
scalar MyScenario.node[15].appl 	receivedBSMs 	0
scalar MyScenario.node[15].appl 	generatedWSAs 	0
scalar MyScenario.node[15].appl 	receivedWSAs 	0
scalar MyScenario.node[15].nic.phy80211p 	busyTime 	0
scalar MyScenario.node[15].nic.mac1609_4 	ReceivedUnicastPackets 	0
scalar MyScenario.node[15].nic.mac1609_4 	ReceivedBroadcasts 	0
scalar MyScenario.node[15].nic.mac1609_4 	SentPackets 	0
scalar MyScenario.node[15].nic.mac1609_4 	SNIRLostPackets 	0
scalar MyScenario.node[15].nic.mac1609_4 	RXTXLostPackets 	0
scalar MyScenario.node[15].nic.mac1609_4 	TotalLostPackets 	0
scalar MyScenario.node[15].nic.mac1609_4 	DroppedPacketsInMac 	0
scalar MyScenario.node[15].nic.mac1609_4 	TooLittleTime 	0
scalar MyScenario.node[15].nic.mac1609_4 	TimesIntoBackoff 	0
scalar MyScenario.node[15].nic.mac1609_4 	SlotsBackoff 	0
scalar MyScenario.node[15].nic.mac1609_4 	NumInternalContention 	0
scalar MyScenario.node[15].nic.mac1609_4 	totalBusyTime 	0
scalar MyScenario.node[15].veinsmobility 	startTime 	1
scalar MyScenario.node[15].veinsmobility 	totalTime 	127
scalar MyScenario.node[15].veinsmobility 	stopTime 	129
scalar MyScenario.node[15].veinsmobility 	minSpeed 	1.4211492494345e-05
scalar MyScenario.node[15].veinsmobility 	maxSpeed 	13.890674028336
scalar MyScenario.node[15].veinsmobility 	totalDistance 	1261.3354999108
scalar MyScenario.node[15].veinsmobility 	totalCO2Emission 	404.53945157738
scalar MyScenario.node[58].appl 	generatedWSMs 	0
scalar MyScenario.node[58].appl 	receivedWSMs 	0
scalar MyScenario.node[58].appl 	generatedBSMs 	0
scalar MyScenario.node[58].appl 	receivedBSMs 	0
scalar MyScenario.node[58].appl 	generatedWSAs 	0
scalar MyScenario.node[58].appl 	receivedWSAs 	0
scalar MyScenario.node[58].nic.phy80211p 	busyTime 	0
scalar MyScenario.node[58].nic.mac1609_4 	ReceivedUnicastPackets 	0
scalar MyScenario.node[58].nic.mac1609_4 	ReceivedBroadcasts 	0
scalar MyScenario.node[58].nic.mac1609_4 	SentPackets 	0
scalar MyScenario.node[58].nic.mac1609_4 	SNIRLostPackets 	0
scalar MyScenario.node[58].nic.mac1609_4 	RXTXLostPackets 	0
scalar MyScenario.node[58].nic.mac1609_4 	TotalLostPackets 	0
scalar MyScenario.node[58].nic.mac1609_4 	DroppedPacketsInMac 	0
scalar MyScenario.node[58].nic.mac1609_4 	TooLittleTime 	0
scalar MyScenario.node[58].nic.mac1609_4 	TimesIntoBackoff 	0
scalar MyScenario.node[58].nic.mac1609_4 	SlotsBackoff 	0
scalar MyScenario.node[58].nic.mac1609_4 	NumInternalContention 	0
scalar MyScenario.node[58].nic.mac1609_4 	totalBusyTime 	0
scalar MyScenario.node[58].veinsmobility 	startTime 	1
scalar MyScenario.node[58].veinsmobility 	totalTime 	127
scalar MyScenario.node[58].veinsmobility 	stopTime 	129
scalar MyScenario.node[58].veinsmobility 	minSpeed 	1.382977415664e-05
scalar MyScenario.node[58].veinsmobility 	maxSpeed 	13.886443073931
scalar MyScenario.node[58].veinsmobility 	totalDistance 	1266.8953590509
scalar MyScenario.node[58].veinsmobility 	totalCO2Emission 	419.70385604244
scalar MyScenario.node[11].appl 	generatedWSMs 	0
scalar MyScenario.node[11].appl 	receivedWSMs 	0
scalar MyScenario.node[11].appl 	generatedBSMs 	0
scalar MyScenario.node[11].appl 	receivedBSMs 	0
scalar MyScenario.node[11].appl 	generatedWSAs 	0
scalar MyScenario.node[11].appl 	receivedWSAs 	0
scalar MyScenario.node[11].nic.phy80211p 	busyTime 	0
scalar MyScenario.node[11].nic.mac1609_4 	ReceivedUnicastPackets 	0
scalar MyScenario.node[11].nic.mac1609_4 	ReceivedBroadcasts 	0
scalar MyScenario.node[11].nic.mac1609_4 	SentPackets 	0
scalar MyScenario.node[11].nic.mac1609_4 	SNIRLostPackets 	0
scalar MyScenario.node[11].nic.mac1609_4 	RXTXLostPackets 	0
scalar MyScenario.node[11].nic.mac1609_4 	TotalLostPackets 	0
scalar MyScenario.node[11].nic.mac1609_4 	DroppedPacketsInMac 	0
scalar MyScenario.node[11].nic.mac1609_4 	TooLittleTime 	0
scalar MyScenario.node[11].nic.mac1609_4 	TimesIntoBackoff 	0
scalar MyScenario.node[11].nic.mac1609_4 	SlotsBackoff 	0
scalar MyScenario.node[11].nic.mac1609_4 	NumInternalContention 	0
scalar MyScenario.node[11].nic.mac1609_4 	totalBusyTime 	0
scalar MyScenario.node[11].veinsmobility 	startTime 	1
scalar MyScenario.node[11].veinsmobility 	totalTime 	128
scalar MyScenario.node[11].veinsmobility 	stopTime 	130
scalar MyScenario.node[11].veinsmobility 	minSpeed 	4.4142191321866e-05
scalar MyScenario.node[11].veinsmobility 	maxSpeed 	13.871958532534
scalar MyScenario.node[11].veinsmobility 	totalDistance 	1256.9474725294
scalar MyScenario.node[11].veinsmobility 	totalCO2Emission 	377.60935876154
scalar MyScenario.node[194].appl 	generatedWSMs 	0
scalar MyScenario.node[194].appl 	receivedWSMs 	0
scalar MyScenario.node[194].appl 	generatedBSMs 	0
scalar MyScenario.node[194].appl 	receivedBSMs 	0
scalar MyScenario.node[194].appl 	generatedWSAs 	0
scalar MyScenario.node[194].appl 	receivedWSAs 	0
scalar MyScenario.node[194].nic.phy80211p 	busyTime 	0
scalar MyScenario.node[194].nic.mac1609_4 	ReceivedUnicastPackets 	0
scalar MyScenario.node[194].nic.mac1609_4 	ReceivedBroadcasts 	0
scalar MyScenario.node[194].nic.mac1609_4 	SentPackets 	0
scalar MyScenario.node[194].nic.mac1609_4 	SNIRLostPackets 	0
scalar MyScenario.node[194].nic.mac1609_4 	RXTXLostPackets 	0
scalar MyScenario.node[194].nic.mac1609_4 	TotalLostPackets 	0
scalar MyScenario.node[194].nic.mac1609_4 	DroppedPacketsInMac 	0
scalar MyScenario.node[194].nic.mac1609_4 	TooLittleTime 	0
scalar MyScenario.node[194].nic.mac1609_4 	TimesIntoBackoff 	0
scalar MyScenario.node[194].nic.mac1609_4 	SlotsBackoff 	0
scalar MyScenario.node[194].nic.mac1609_4 	NumInternalContention 	0
scalar MyScenario.node[194].nic.mac1609_4 	totalBusyTime 	0
scalar MyScenario.node[194].veinsmobility 	startTime 	7
scalar MyScenario.node[194].veinsmobility 	totalTime 	122
scalar MyScenario.node[194].veinsmobility 	stopTime 	130
scalar MyScenario.node[194].veinsmobility 	minSpeed 	6.2733884316186e-05
scalar MyScenario.node[194].veinsmobility 	maxSpeed 	13.896973926551
scalar MyScenario.node[194].veinsmobility 	totalDistance 	1172.1882775674
scalar MyScenario.node[194].veinsmobility 	totalCO2Emission 	397.46793633584
scalar MyScenario.node[175].appl 	generatedWSMs 	0
scalar MyScenario.node[175].appl 	receivedWSMs 	0
scalar MyScenario.node[175].appl 	generatedBSMs 	0
scalar MyScenario.node[175].appl 	receivedBSMs 	0
scalar MyScenario.node[175].appl 	generatedWSAs 	0
scalar MyScenario.node[175].appl 	receivedWSAs 	0
scalar MyScenario.node[175].nic.phy80211p 	busyTime 	0
scalar MyScenario.node[175].nic.mac1609_4 	ReceivedUnicastPackets 	0
scalar MyScenario.node[175].nic.mac1609_4 	ReceivedBroadcasts 	0
scalar MyScenario.node[175].nic.mac1609_4 	SentPackets 	0
scalar MyScenario.node[175].nic.mac1609_4 	SNIRLostPackets 	0
scalar MyScenario.node[175].nic.mac1609_4 	RXTXLostPackets 	0
scalar MyScenario.node[175].nic.mac1609_4 	TotalLostPackets 	0
scalar MyScenario.node[175].nic.mac1609_4 	DroppedPacketsInMac 	0
scalar MyScenario.node[175].nic.mac1609_4 	TooLittleTime 	0
scalar MyScenario.node[175].nic.mac1609_4 	TimesIntoBackoff 	0
scalar MyScenario.node[175].nic.mac1609_4 	SlotsBackoff 	0
scalar MyScenario.node[175].nic.mac1609_4 	NumInternalContention 	0
scalar MyScenario.node[175].nic.mac1609_4 	totalBusyTime 	0
scalar MyScenario.node[175].veinsmobility 	startTime 	4
scalar MyScenario.node[175].veinsmobility 	totalTime 	128
scalar MyScenario.node[175].veinsmobility 	stopTime 	133
scalar MyScenario.node[175].veinsmobility 	minSpeed 	0.0078332287601127
scalar MyScenario.node[175].veinsmobility 	maxSpeed 	13.893412869819
scalar MyScenario.node[175].veinsmobility 	totalDistance 	1269.0249098464
scalar MyScenario.node[175].veinsmobility 	totalCO2Emission 	403.17558490591
scalar MyScenario.node[195].appl 	generatedWSMs 	0
scalar MyScenario.node[195].appl 	receivedWSMs 	0
scalar MyScenario.node[195].appl 	generatedBSMs 	0
scalar MyScenario.node[195].appl 	receivedBSMs 	0
scalar MyScenario.node[195].appl 	generatedWSAs 	0
scalar MyScenario.node[195].appl 	receivedWSAs 	0
scalar MyScenario.node[195].nic.phy80211p 	busyTime 	0
scalar MyScenario.node[195].nic.mac1609_4 	ReceivedUnicastPackets 	0
scalar MyScenario.node[195].nic.mac1609_4 	ReceivedBroadcasts 	0
scalar MyScenario.node[195].nic.mac1609_4 	SentPackets 	0
scalar MyScenario.node[195].nic.mac1609_4 	SNIRLostPackets 	0
scalar MyScenario.node[195].nic.mac1609_4 	RXTXLostPackets 	0
scalar MyScenario.node[195].nic.mac1609_4 	TotalLostPackets 	0
scalar MyScenario.node[195].nic.mac1609_4 	DroppedPacketsInMac 	0
scalar MyScenario.node[195].nic.mac1609_4 	TooLittleTime 	0
scalar MyScenario.node[195].nic.mac1609_4 	TimesIntoBackoff 	0
scalar MyScenario.node[195].nic.mac1609_4 	SlotsBackoff 	0
scalar MyScenario.node[195].nic.mac1609_4 	NumInternalContention 	0
scalar MyScenario.node[195].nic.mac1609_4 	totalBusyTime 	0
scalar MyScenario.node[195].veinsmobility 	startTime 	7
scalar MyScenario.node[195].veinsmobility 	totalTime 	127
scalar MyScenario.node[195].veinsmobility 	stopTime 	135
scalar MyScenario.node[195].veinsmobility 	minSpeed 	1.8306032117456
scalar MyScenario.node[195].veinsmobility 	maxSpeed 	13.864380744565
scalar MyScenario.node[195].veinsmobility 	totalDistance 	1566.8844865041
scalar MyScenario.node[195].veinsmobility 	totalCO2Emission 	337.20662043328
scalar MyScenario.node[63].appl 	generatedWSMs 	1
scalar MyScenario.node[63].appl 	receivedWSMs 	2
scalar MyScenario.node[63].appl 	generatedBSMs 	0
scalar MyScenario.node[63].appl 	receivedBSMs 	0
scalar MyScenario.node[63].appl 	generatedWSAs 	0
scalar MyScenario.node[63].appl 	receivedWSAs 	0
scalar MyScenario.node[63].nic.phy80211p 	busyTime 	2.7496296296296e-05
scalar MyScenario.node[63].nic.mac1609_4 	ReceivedUnicastPackets 	0
scalar MyScenario.node[63].nic.mac1609_4 	ReceivedBroadcasts 	2
scalar MyScenario.node[63].nic.mac1609_4 	SentPackets 	1
scalar MyScenario.node[63].nic.mac1609_4 	SNIRLostPackets 	14
scalar MyScenario.node[63].nic.mac1609_4 	RXTXLostPackets 	2
scalar MyScenario.node[63].nic.mac1609_4 	TotalLostPackets 	16
scalar MyScenario.node[63].nic.mac1609_4 	DroppedPacketsInMac 	0
scalar MyScenario.node[63].nic.mac1609_4 	TooLittleTime 	0
scalar MyScenario.node[63].nic.mac1609_4 	TimesIntoBackoff 	1
scalar MyScenario.node[63].nic.mac1609_4 	SlotsBackoff 	1
scalar MyScenario.node[63].nic.mac1609_4 	NumInternalContention 	0
scalar MyScenario.node[63].nic.mac1609_4 	totalBusyTime 	0.001393
scalar MyScenario.node[63].veinsmobility 	startTime 	1
scalar MyScenario.node[63].veinsmobility 	totalTime 	134
scalar MyScenario.node[63].veinsmobility 	stopTime 	136
scalar MyScenario.node[63].veinsmobility 	minSpeed 	0
scalar MyScenario.node[63].veinsmobility 	maxSpeed 	13.825757886027
scalar MyScenario.node[63].veinsmobility 	totalDistance 	1062.556897107
scalar MyScenario.node[63].veinsmobility 	totalCO2Emission 	347.16055580345
scalar MyScenario.node[91].appl 	generatedWSMs 	1
scalar MyScenario.node[91].appl 	receivedWSMs 	1
scalar MyScenario.node[91].appl 	generatedBSMs 	0
scalar MyScenario.node[91].appl 	receivedBSMs 	0
scalar MyScenario.node[91].appl 	generatedWSAs 	0
scalar MyScenario.node[91].appl 	receivedWSAs 	0
scalar MyScenario.node[91].nic.phy80211p 	busyTime 	3.3868613138686e-06
scalar MyScenario.node[91].nic.mac1609_4 	ReceivedUnicastPackets 	0
scalar MyScenario.node[91].nic.mac1609_4 	ReceivedBroadcasts 	1
scalar MyScenario.node[91].nic.mac1609_4 	SentPackets 	1
scalar MyScenario.node[91].nic.mac1609_4 	SNIRLostPackets 	1
scalar MyScenario.node[91].nic.mac1609_4 	RXTXLostPackets 	12
scalar MyScenario.node[91].nic.mac1609_4 	TotalLostPackets 	13
scalar MyScenario.node[91].nic.mac1609_4 	DroppedPacketsInMac 	0
scalar MyScenario.node[91].nic.mac1609_4 	TooLittleTime 	0
scalar MyScenario.node[91].nic.mac1609_4 	TimesIntoBackoff 	1
scalar MyScenario.node[91].nic.mac1609_4 	SlotsBackoff 	0
scalar MyScenario.node[91].nic.mac1609_4 	NumInternalContention 	0
scalar MyScenario.node[91].nic.mac1609_4 	totalBusyTime 	0.000697
scalar MyScenario.node[91].veinsmobility 	startTime 	1
scalar MyScenario.node[91].veinsmobility 	totalTime 	136
scalar MyScenario.node[91].veinsmobility 	stopTime 	138
scalar MyScenario.node[91].veinsmobility 	minSpeed 	7.9859464878761e-10
scalar MyScenario.node[91].veinsmobility 	maxSpeed 	13.899788410449
scalar MyScenario.node[91].veinsmobility 	totalDistance 	1358.4048582223
scalar MyScenario.node[91].veinsmobility 	totalCO2Emission 	403.41886236065
scalar MyScenario.node[130].appl 	generatedWSMs 	1
scalar MyScenario.node[130].appl 	receivedWSMs 	6
scalar MyScenario.node[130].appl 	generatedBSMs 	0
scalar MyScenario.node[130].appl 	receivedBSMs 	0
scalar MyScenario.node[130].appl 	generatedWSAs 	0
scalar MyScenario.node[130].appl 	receivedWSAs 	0
scalar MyScenario.node[130].nic.phy80211p 	busyTime 	1.7722222222222e-05
scalar MyScenario.node[130].nic.mac1609_4 	ReceivedUnicastPackets 	0
scalar MyScenario.node[130].nic.mac1609_4 	ReceivedBroadcasts 	6
scalar MyScenario.node[130].nic.mac1609_4 	SentPackets 	1
scalar MyScenario.node[130].nic.mac1609_4 	SNIRLostPackets 	5
scalar MyScenario.node[130].nic.mac1609_4 	RXTXLostPackets 	11
scalar MyScenario.node[130].nic.mac1609_4 	TotalLostPackets 	16
scalar MyScenario.node[130].nic.mac1609_4 	DroppedPacketsInMac 	0
scalar MyScenario.node[130].nic.mac1609_4 	TooLittleTime 	0
scalar MyScenario.node[130].nic.mac1609_4 	TimesIntoBackoff 	1
scalar MyScenario.node[130].nic.mac1609_4 	SlotsBackoff 	0
scalar MyScenario.node[130].nic.mac1609_4 	NumInternalContention 	0
scalar MyScenario.node[130].nic.mac1609_4 	totalBusyTime 	0.001857027598
scalar MyScenario.node[130].veinsmobility 	startTime 	1
scalar MyScenario.node[130].veinsmobility 	totalTime 	143
scalar MyScenario.node[130].veinsmobility 	stopTime 	145
scalar MyScenario.node[130].veinsmobility 	minSpeed 	9.5532489271955e-12
scalar MyScenario.node[130].veinsmobility 	maxSpeed 	13.899841663335
scalar MyScenario.node[130].veinsmobility 	totalDistance 	1076.6096340764
scalar MyScenario.node[130].veinsmobility 	totalCO2Emission 	401.5656944546
scalar MyScenario.node[184].appl 	generatedWSMs 	1
scalar MyScenario.node[184].appl 	receivedWSMs 	1
scalar MyScenario.node[184].appl 	generatedBSMs 	0
scalar MyScenario.node[184].appl 	receivedBSMs 	0
scalar MyScenario.node[184].appl 	generatedWSAs 	0
scalar MyScenario.node[184].appl 	receivedWSAs 	0
scalar MyScenario.node[184].nic.phy80211p 	busyTime 	4.9014084507042e-06
scalar MyScenario.node[184].nic.mac1609_4 	ReceivedUnicastPackets 	0
scalar MyScenario.node[184].nic.mac1609_4 	ReceivedBroadcasts 	1
scalar MyScenario.node[184].nic.mac1609_4 	SentPackets 	1
scalar MyScenario.node[184].nic.mac1609_4 	SNIRLostPackets 	2
scalar MyScenario.node[184].nic.mac1609_4 	RXTXLostPackets 	12
scalar MyScenario.node[184].nic.mac1609_4 	TotalLostPackets 	14
scalar MyScenario.node[184].nic.mac1609_4 	DroppedPacketsInMac 	0
scalar MyScenario.node[184].nic.mac1609_4 	TooLittleTime 	0
scalar MyScenario.node[184].nic.mac1609_4 	TimesIntoBackoff 	1
scalar MyScenario.node[184].nic.mac1609_4 	SlotsBackoff 	2
scalar MyScenario.node[184].nic.mac1609_4 	NumInternalContention 	0
scalar MyScenario.node[184].nic.mac1609_4 	totalBusyTime 	0.000697000873
scalar MyScenario.node[184].veinsmobility 	startTime 	4
scalar MyScenario.node[184].veinsmobility 	totalTime 	141
scalar MyScenario.node[184].veinsmobility 	stopTime 	146
scalar MyScenario.node[184].veinsmobility 	minSpeed 	0.093166720398822
scalar MyScenario.node[184].veinsmobility 	maxSpeed 	13.846461279783
scalar MyScenario.node[184].veinsmobility 	totalDistance 	1472.1411553335
scalar MyScenario.node[184].veinsmobility 	totalCO2Emission 	434.38392098567
scalar MyScenario.node[97].appl 	generatedWSMs 	1
scalar MyScenario.node[97].appl 	receivedWSMs 	1
scalar MyScenario.node[97].appl 	generatedBSMs 	0
scalar MyScenario.node[97].appl 	receivedBSMs 	0
scalar MyScenario.node[97].appl 	generatedWSAs 	0
scalar MyScenario.node[97].appl 	receivedWSAs 	0
scalar MyScenario.node[97].nic.phy80211p 	busyTime 	1.0343949044586e-05
scalar MyScenario.node[97].nic.mac1609_4 	ReceivedUnicastPackets 	0
scalar MyScenario.node[97].nic.mac1609_4 	ReceivedBroadcasts 	1
scalar MyScenario.node[97].nic.mac1609_4 	SentPackets 	1
scalar MyScenario.node[97].nic.mac1609_4 	SNIRLostPackets 	6
scalar MyScenario.node[97].nic.mac1609_4 	RXTXLostPackets 	6
scalar MyScenario.node[97].nic.mac1609_4 	TotalLostPackets 	12
scalar MyScenario.node[97].nic.mac1609_4 	DroppedPacketsInMac 	0
scalar MyScenario.node[97].nic.mac1609_4 	TooLittleTime 	0
scalar MyScenario.node[97].nic.mac1609_4 	TimesIntoBackoff 	1
scalar MyScenario.node[97].nic.mac1609_4 	SlotsBackoff 	3
scalar MyScenario.node[97].nic.mac1609_4 	NumInternalContention 	0
scalar MyScenario.node[97].nic.mac1609_4 	totalBusyTime 	0.000697049896
scalar MyScenario.node[97].veinsmobility 	startTime 	1
scalar MyScenario.node[97].veinsmobility 	totalTime 	156
scalar MyScenario.node[97].veinsmobility 	stopTime 	158
scalar MyScenario.node[97].veinsmobility 	minSpeed 	0.0012036874255981
scalar MyScenario.node[97].veinsmobility 	maxSpeed 	13.889722650219
scalar MyScenario.node[97].veinsmobility 	totalDistance 	1663.8950252764
scalar MyScenario.node[97].veinsmobility 	totalCO2Emission 	489.21640844816
