version 2
run General-30-20170829-17:45:08-8100
attr configname General
attr datetime 20170829-17:45:08
attr density 400
attr experiment General
attr inifile omnetpp.ini
attr iterationvars $density=400
attr iterationvars2 "$density=400, $repetition=0"
attr measurement $density=400
attr network com.liborio.pi.MyScenario
attr processid 8100
attr repetition 0
attr replication #0
attr resultdir results
attr runnumber 30
attr seedset 0
param **.coreDebug false
param **.debug false
param *.**.nic.mac1609_4.bitrate 6Mbps
param *.**.nic.mac1609_4.txPower 20mW
param *.**.nic.mac1609_4.useServiceChannel true
param *.**.nic.phy80211p.analogueModels "xmldoc(\"config.xml\")"
param *.**.nic.phy80211p.antenna "xmldoc(\"antenna.xml\", \"/root/Antenna[@id='monopole']\")"
param *.**.nic.phy80211p.decider "xmldoc(\"config.xml\")"
param *.**.nic.phy80211p.sensitivity -84.39dBm
param *.**.nic.phy80211p.thermalNoise -110dBm
param *.**.nic.phy80211p.usePropagationDelay true
param *.**.nic.phy80211p.useThermalNoise true
param *.annotations.draw true
param *.connectionManager.drawMaxIntfDist false
param *.connectionManager.maxInterfDist 2600m
param *.connectionManager.sendDirect true
param *.manager.autoShutdown true
param *.manager.host "\"localhost\""
param *.manager.launchConfig "xmldoc(string(${density = 100, 200, 300, 400})+\"_\"+ string(${repetition})+\".launchd.xml\")"
param *.manager.port 9999
param *.manager.updateInterval 1s
param *.node[*].appl.beaconInterval 1s
param *.node[*].appl.dataOnSch true
param *.node[*].appl.headerLength "80 bit"
param *.node[*].appl.isSource false
param *.node[*].appl.numMsgs 100
param *.node[*].appl.sendBeacons false
param *.node[*].appl.stopTrafficTime 130s
param *.node[*].appl.wsmInterval 3s
param *.node[*].applType "\"Flooding\""
param *.node[*].veinsmobility.x 0
param *.node[*].veinsmobility.y 0
param *.node[*].veinsmobility.z 1.895
param *.node[*].veinsmobilityType.debug true
param *.node[0].appl.isSource true
param *.playgroundSizeX 2500m
param *.playgroundSizeY 2500m
param *.playgroundSizeZ 50m

scalar . 	density 	400
scalar MyScenario.node[85].appl 	generatedWSMs 	0
scalar MyScenario.node[85].appl 	receivedWSMs 	0
scalar MyScenario.node[85].appl 	generatedBSMs 	0
scalar MyScenario.node[85].appl 	receivedBSMs 	0
scalar MyScenario.node[85].appl 	generatedWSAs 	0
scalar MyScenario.node[85].appl 	receivedWSAs 	0
scalar MyScenario.node[85].nic.phy80211p 	busyTime 	0.0001856
scalar MyScenario.node[85].nic.mac1609_4 	ReceivedUnicastPackets 	0
scalar MyScenario.node[85].nic.mac1609_4 	ReceivedBroadcasts 	0
scalar MyScenario.node[85].nic.mac1609_4 	SentPackets 	0
scalar MyScenario.node[85].nic.mac1609_4 	SNIRLostPackets 	8
scalar MyScenario.node[85].nic.mac1609_4 	RXTXLostPackets 	0
scalar MyScenario.node[85].nic.mac1609_4 	TotalLostPackets 	8
scalar MyScenario.node[85].nic.mac1609_4 	DroppedPacketsInMac 	0
scalar MyScenario.node[85].nic.mac1609_4 	TooLittleTime 	0
scalar MyScenario.node[85].nic.mac1609_4 	TimesIntoBackoff 	0
scalar MyScenario.node[85].nic.mac1609_4 	SlotsBackoff 	0
scalar MyScenario.node[85].nic.mac1609_4 	NumInternalContention 	0
scalar MyScenario.node[85].nic.mac1609_4 	totalBusyTime 	0.000232
scalar MyScenario.node[85].veinsmobility 	startTime 	1
scalar MyScenario.node[85].veinsmobility 	totalTime 	9
scalar MyScenario.node[85].veinsmobility 	stopTime 	11
scalar MyScenario.node[85].veinsmobility 	minSpeed 	1.9987021745881
scalar MyScenario.node[85].veinsmobility 	maxSpeed 	13.874464088678
scalar MyScenario.node[85].veinsmobility 	totalDistance 	81.071906201984
scalar MyScenario.node[85].veinsmobility 	totalCO2Emission 	40.267797061575
scalar MyScenario.node[9].appl 	generatedWSMs 	0
scalar MyScenario.node[9].appl 	receivedWSMs 	0
scalar MyScenario.node[9].appl 	generatedBSMs 	0
scalar MyScenario.node[9].appl 	receivedBSMs 	0
scalar MyScenario.node[9].appl 	generatedWSAs 	0
scalar MyScenario.node[9].appl 	receivedWSAs 	0
scalar MyScenario.node[9].nic.phy80211p 	busyTime 	0
scalar MyScenario.node[9].nic.mac1609_4 	ReceivedUnicastPackets 	0
scalar MyScenario.node[9].nic.mac1609_4 	ReceivedBroadcasts 	0
scalar MyScenario.node[9].nic.mac1609_4 	SentPackets 	0
scalar MyScenario.node[9].nic.mac1609_4 	SNIRLostPackets 	0
scalar MyScenario.node[9].nic.mac1609_4 	RXTXLostPackets 	0
scalar MyScenario.node[9].nic.mac1609_4 	TotalLostPackets 	0
scalar MyScenario.node[9].nic.mac1609_4 	DroppedPacketsInMac 	0
scalar MyScenario.node[9].nic.mac1609_4 	TooLittleTime 	0
scalar MyScenario.node[9].nic.mac1609_4 	TimesIntoBackoff 	0
scalar MyScenario.node[9].nic.mac1609_4 	SlotsBackoff 	0
scalar MyScenario.node[9].nic.mac1609_4 	NumInternalContention 	0
scalar MyScenario.node[9].nic.mac1609_4 	totalBusyTime 	0
scalar MyScenario.node[9].veinsmobility 	startTime 	1
scalar MyScenario.node[9].veinsmobility 	totalTime 	9
scalar MyScenario.node[9].veinsmobility 	stopTime 	11
scalar MyScenario.node[9].veinsmobility 	minSpeed 	2.4353668051306
scalar MyScenario.node[9].veinsmobility 	maxSpeed 	13.467674681125
scalar MyScenario.node[9].veinsmobility 	totalDistance 	77.646413438069
scalar MyScenario.node[9].veinsmobility 	totalCO2Emission 	36.648036606282
scalar MyScenario.node[224].appl 	generatedWSMs 	1
scalar MyScenario.node[224].appl 	receivedWSMs 	4
scalar MyScenario.node[224].appl 	generatedBSMs 	0
scalar MyScenario.node[224].appl 	receivedBSMs 	0
scalar MyScenario.node[224].appl 	generatedWSAs 	0
scalar MyScenario.node[224].appl 	receivedWSAs 	0
scalar MyScenario.node[224].nic.phy80211p 	busyTime 	0.0002088
scalar MyScenario.node[224].nic.mac1609_4 	ReceivedUnicastPackets 	0
scalar MyScenario.node[224].nic.mac1609_4 	ReceivedBroadcasts 	4
scalar MyScenario.node[224].nic.mac1609_4 	SentPackets 	1
scalar MyScenario.node[224].nic.mac1609_4 	SNIRLostPackets 	5
scalar MyScenario.node[224].nic.mac1609_4 	RXTXLostPackets 	5
scalar MyScenario.node[224].nic.mac1609_4 	TotalLostPackets 	10
scalar MyScenario.node[224].nic.mac1609_4 	DroppedPacketsInMac 	0
scalar MyScenario.node[224].nic.mac1609_4 	TooLittleTime 	0
scalar MyScenario.node[224].nic.mac1609_4 	TimesIntoBackoff 	1
scalar MyScenario.node[224].nic.mac1609_4 	SlotsBackoff 	2
scalar MyScenario.node[224].nic.mac1609_4 	NumInternalContention 	0
scalar MyScenario.node[224].nic.mac1609_4 	totalBusyTime 	0.001625
scalar MyScenario.node[224].veinsmobility 	startTime 	1
scalar MyScenario.node[224].veinsmobility 	totalTime 	9
scalar MyScenario.node[224].veinsmobility 	stopTime 	11
scalar MyScenario.node[224].veinsmobility 	minSpeed 	2.0713028682163
scalar MyScenario.node[224].veinsmobility 	maxSpeed 	13.453042249451
scalar MyScenario.node[224].veinsmobility 	totalDistance 	79.763900942006
scalar MyScenario.node[224].veinsmobility 	totalCO2Emission 	36.316553226777
scalar MyScenario.node[22].appl 	generatedWSMs 	0
scalar MyScenario.node[22].appl 	receivedWSMs 	0
scalar MyScenario.node[22].appl 	generatedBSMs 	0
scalar MyScenario.node[22].appl 	receivedBSMs 	0
scalar MyScenario.node[22].appl 	generatedWSAs 	0
scalar MyScenario.node[22].appl 	receivedWSAs 	0
scalar MyScenario.node[22].nic.phy80211p 	busyTime 	0
scalar MyScenario.node[22].nic.mac1609_4 	ReceivedUnicastPackets 	0
scalar MyScenario.node[22].nic.mac1609_4 	ReceivedBroadcasts 	0
scalar MyScenario.node[22].nic.mac1609_4 	SentPackets 	0
scalar MyScenario.node[22].nic.mac1609_4 	SNIRLostPackets 	0
scalar MyScenario.node[22].nic.mac1609_4 	RXTXLostPackets 	0
scalar MyScenario.node[22].nic.mac1609_4 	TotalLostPackets 	0
scalar MyScenario.node[22].nic.mac1609_4 	DroppedPacketsInMac 	0
scalar MyScenario.node[22].nic.mac1609_4 	TooLittleTime 	0
scalar MyScenario.node[22].nic.mac1609_4 	TimesIntoBackoff 	0
scalar MyScenario.node[22].nic.mac1609_4 	SlotsBackoff 	0
scalar MyScenario.node[22].nic.mac1609_4 	NumInternalContention 	0
scalar MyScenario.node[22].nic.mac1609_4 	totalBusyTime 	0
scalar MyScenario.node[22].veinsmobility 	startTime 	1
scalar MyScenario.node[22].veinsmobility 	totalTime 	9
scalar MyScenario.node[22].veinsmobility 	stopTime 	11
scalar MyScenario.node[22].veinsmobility 	minSpeed 	2.5597263443982
scalar MyScenario.node[22].veinsmobility 	maxSpeed 	13.34506655091
scalar MyScenario.node[22].veinsmobility 	totalDistance 	83.201829406829
scalar MyScenario.node[22].veinsmobility 	totalCO2Emission 	36.022838502389
scalar MyScenario.node[87].appl 	generatedWSMs 	0
scalar MyScenario.node[87].appl 	receivedWSMs 	0
scalar MyScenario.node[87].appl 	generatedBSMs 	0
scalar MyScenario.node[87].appl 	receivedBSMs 	0
scalar MyScenario.node[87].appl 	generatedWSAs 	0
scalar MyScenario.node[87].appl 	receivedWSAs 	0
scalar MyScenario.node[87].nic.phy80211p 	busyTime 	0
scalar MyScenario.node[87].nic.mac1609_4 	ReceivedUnicastPackets 	0
scalar MyScenario.node[87].nic.mac1609_4 	ReceivedBroadcasts 	0
scalar MyScenario.node[87].nic.mac1609_4 	SentPackets 	0
scalar MyScenario.node[87].nic.mac1609_4 	SNIRLostPackets 	0
scalar MyScenario.node[87].nic.mac1609_4 	RXTXLostPackets 	0
scalar MyScenario.node[87].nic.mac1609_4 	TotalLostPackets 	0
scalar MyScenario.node[87].nic.mac1609_4 	DroppedPacketsInMac 	0
scalar MyScenario.node[87].nic.mac1609_4 	TooLittleTime 	0
scalar MyScenario.node[87].nic.mac1609_4 	TimesIntoBackoff 	0
scalar MyScenario.node[87].nic.mac1609_4 	SlotsBackoff 	0
scalar MyScenario.node[87].nic.mac1609_4 	NumInternalContention 	0
scalar MyScenario.node[87].nic.mac1609_4 	totalBusyTime 	0
scalar MyScenario.node[87].veinsmobility 	startTime 	1
scalar MyScenario.node[87].veinsmobility 	totalTime 	9
scalar MyScenario.node[87].veinsmobility 	stopTime 	11
scalar MyScenario.node[87].veinsmobility 	minSpeed 	1.7010572277475
scalar MyScenario.node[87].veinsmobility 	maxSpeed 	13.767064283928
scalar MyScenario.node[87].veinsmobility 	totalDistance 	77.945625891141
scalar MyScenario.node[87].veinsmobility 	totalCO2Emission 	38.39972932502
scalar MyScenario.node[59].appl 	generatedWSMs 	1
scalar MyScenario.node[59].appl 	receivedWSMs 	1
scalar MyScenario.node[59].appl 	generatedBSMs 	0
scalar MyScenario.node[59].appl 	receivedBSMs 	0
scalar MyScenario.node[59].appl 	generatedWSAs 	0
scalar MyScenario.node[59].appl 	receivedWSAs 	0
scalar MyScenario.node[59].nic.phy80211p 	busyTime 	8.4363636363636e-05
scalar MyScenario.node[59].nic.mac1609_4 	ReceivedUnicastPackets 	0
scalar MyScenario.node[59].nic.mac1609_4 	ReceivedBroadcasts 	1
scalar MyScenario.node[59].nic.mac1609_4 	SentPackets 	1
scalar MyScenario.node[59].nic.mac1609_4 	SNIRLostPackets 	3
scalar MyScenario.node[59].nic.mac1609_4 	RXTXLostPackets 	33
scalar MyScenario.node[59].nic.mac1609_4 	TotalLostPackets 	36
scalar MyScenario.node[59].nic.mac1609_4 	DroppedPacketsInMac 	0
scalar MyScenario.node[59].nic.mac1609_4 	TooLittleTime 	0
scalar MyScenario.node[59].nic.mac1609_4 	TimesIntoBackoff 	1
scalar MyScenario.node[59].nic.mac1609_4 	SlotsBackoff 	3
scalar MyScenario.node[59].nic.mac1609_4 	NumInternalContention 	0
scalar MyScenario.node[59].nic.mac1609_4 	totalBusyTime 	0.00069725661
scalar MyScenario.node[59].veinsmobility 	startTime 	1
scalar MyScenario.node[59].veinsmobility 	totalTime 	10
scalar MyScenario.node[59].veinsmobility 	stopTime 	12
scalar MyScenario.node[59].veinsmobility 	minSpeed 	2.1588228198932
scalar MyScenario.node[59].veinsmobility 	maxSpeed 	13.81839417927
scalar MyScenario.node[59].veinsmobility 	totalDistance 	92.172922705436
scalar MyScenario.node[59].veinsmobility 	totalCO2Emission 	39.490234237418
scalar MyScenario.node[95].appl 	generatedWSMs 	0
scalar MyScenario.node[95].appl 	receivedWSMs 	0
scalar MyScenario.node[95].appl 	generatedBSMs 	0
scalar MyScenario.node[95].appl 	receivedBSMs 	0
scalar MyScenario.node[95].appl 	generatedWSAs 	0
scalar MyScenario.node[95].appl 	receivedWSAs 	0
scalar MyScenario.node[95].nic.phy80211p 	busyTime 	0
scalar MyScenario.node[95].nic.mac1609_4 	ReceivedUnicastPackets 	0
scalar MyScenario.node[95].nic.mac1609_4 	ReceivedBroadcasts 	0
scalar MyScenario.node[95].nic.mac1609_4 	SentPackets 	0
scalar MyScenario.node[95].nic.mac1609_4 	SNIRLostPackets 	0
scalar MyScenario.node[95].nic.mac1609_4 	RXTXLostPackets 	0
scalar MyScenario.node[95].nic.mac1609_4 	TotalLostPackets 	0
scalar MyScenario.node[95].nic.mac1609_4 	DroppedPacketsInMac 	0
scalar MyScenario.node[95].nic.mac1609_4 	TooLittleTime 	0
scalar MyScenario.node[95].nic.mac1609_4 	TimesIntoBackoff 	0
scalar MyScenario.node[95].nic.mac1609_4 	SlotsBackoff 	0
scalar MyScenario.node[95].nic.mac1609_4 	NumInternalContention 	0
scalar MyScenario.node[95].nic.mac1609_4 	totalBusyTime 	0
scalar MyScenario.node[95].veinsmobility 	startTime 	1
scalar MyScenario.node[95].veinsmobility 	totalTime 	10
scalar MyScenario.node[95].veinsmobility 	stopTime 	12
scalar MyScenario.node[95].veinsmobility 	minSpeed 	2.1776007921435
scalar MyScenario.node[95].veinsmobility 	maxSpeed 	13.869570817822
scalar MyScenario.node[95].veinsmobility 	totalDistance 	92.908478917903
scalar MyScenario.node[95].veinsmobility 	totalCO2Emission 	39.717846011341
scalar MyScenario.node[323].appl 	generatedWSMs 	0
scalar MyScenario.node[323].appl 	receivedWSMs 	0
scalar MyScenario.node[323].appl 	generatedBSMs 	0
scalar MyScenario.node[323].appl 	receivedBSMs 	0
scalar MyScenario.node[323].appl 	generatedWSAs 	0
scalar MyScenario.node[323].appl 	receivedWSAs 	0
scalar MyScenario.node[323].nic.phy80211p 	busyTime 	0
scalar MyScenario.node[323].nic.mac1609_4 	ReceivedUnicastPackets 	0
scalar MyScenario.node[323].nic.mac1609_4 	ReceivedBroadcasts 	0
scalar MyScenario.node[323].nic.mac1609_4 	SentPackets 	0
scalar MyScenario.node[323].nic.mac1609_4 	SNIRLostPackets 	0
scalar MyScenario.node[323].nic.mac1609_4 	RXTXLostPackets 	0
scalar MyScenario.node[323].nic.mac1609_4 	TotalLostPackets 	0
scalar MyScenario.node[323].nic.mac1609_4 	DroppedPacketsInMac 	0
scalar MyScenario.node[323].nic.mac1609_4 	TooLittleTime 	0
scalar MyScenario.node[323].nic.mac1609_4 	TimesIntoBackoff 	0
scalar MyScenario.node[323].nic.mac1609_4 	SlotsBackoff 	0
scalar MyScenario.node[323].nic.mac1609_4 	NumInternalContention 	0
scalar MyScenario.node[323].nic.mac1609_4 	totalBusyTime 	0
scalar MyScenario.node[323].veinsmobility 	startTime 	4
scalar MyScenario.node[323].veinsmobility 	totalTime 	9
scalar MyScenario.node[323].veinsmobility 	stopTime 	14
scalar MyScenario.node[323].veinsmobility 	minSpeed 	2.4546359105268
scalar MyScenario.node[323].veinsmobility 	maxSpeed 	13.327296426171
scalar MyScenario.node[323].veinsmobility 	totalDistance 	78.197992071323
scalar MyScenario.node[323].veinsmobility 	totalCO2Emission 	35.088297311216
scalar MyScenario.node[272].appl 	generatedWSMs 	0
scalar MyScenario.node[272].appl 	receivedWSMs 	0
scalar MyScenario.node[272].appl 	generatedBSMs 	0
scalar MyScenario.node[272].appl 	receivedBSMs 	0
scalar MyScenario.node[272].appl 	generatedWSAs 	0
scalar MyScenario.node[272].appl 	receivedWSAs 	0
scalar MyScenario.node[272].nic.phy80211p 	busyTime 	0.00037963636363636
scalar MyScenario.node[272].nic.mac1609_4 	ReceivedUnicastPackets 	0
scalar MyScenario.node[272].nic.mac1609_4 	ReceivedBroadcasts 	0
scalar MyScenario.node[272].nic.mac1609_4 	SentPackets 	0
scalar MyScenario.node[272].nic.mac1609_4 	SNIRLostPackets 	18
scalar MyScenario.node[272].nic.mac1609_4 	RXTXLostPackets 	0
scalar MyScenario.node[272].nic.mac1609_4 	TotalLostPackets 	18
scalar MyScenario.node[272].nic.mac1609_4 	DroppedPacketsInMac 	0
scalar MyScenario.node[272].nic.mac1609_4 	TooLittleTime 	0
scalar MyScenario.node[272].nic.mac1609_4 	TimesIntoBackoff 	0
scalar MyScenario.node[272].nic.mac1609_4 	SlotsBackoff 	0
scalar MyScenario.node[272].nic.mac1609_4 	NumInternalContention 	0
scalar MyScenario.node[272].nic.mac1609_4 	totalBusyTime 	0.000232
scalar MyScenario.node[272].veinsmobility 	startTime 	4
scalar MyScenario.node[272].veinsmobility 	totalTime 	10
scalar MyScenario.node[272].veinsmobility 	stopTime 	15
scalar MyScenario.node[272].veinsmobility 	minSpeed 	1.5900108813075
scalar MyScenario.node[272].veinsmobility 	maxSpeed 	13.786534373881
scalar MyScenario.node[272].veinsmobility 	totalDistance 	88.915773220293
scalar MyScenario.node[272].veinsmobility 	totalCO2Emission 	39.881439322164
scalar MyScenario.node[398].appl 	generatedWSMs 	1
scalar MyScenario.node[398].appl 	receivedWSMs 	2
scalar MyScenario.node[398].appl 	generatedBSMs 	0
scalar MyScenario.node[398].appl 	receivedBSMs 	0
scalar MyScenario.node[398].appl 	generatedWSAs 	0
scalar MyScenario.node[398].appl 	receivedWSAs 	0
scalar MyScenario.node[398].nic.phy80211p 	busyTime 	0.00043085714285714
scalar MyScenario.node[398].nic.mac1609_4 	ReceivedUnicastPackets 	0
scalar MyScenario.node[398].nic.mac1609_4 	ReceivedBroadcasts 	2
scalar MyScenario.node[398].nic.mac1609_4 	SentPackets 	1
scalar MyScenario.node[398].nic.mac1609_4 	SNIRLostPackets 	11
scalar MyScenario.node[398].nic.mac1609_4 	RXTXLostPackets 	0
scalar MyScenario.node[398].nic.mac1609_4 	TotalLostPackets 	11
scalar MyScenario.node[398].nic.mac1609_4 	DroppedPacketsInMac 	0
scalar MyScenario.node[398].nic.mac1609_4 	TooLittleTime 	0
scalar MyScenario.node[398].nic.mac1609_4 	TimesIntoBackoff 	1
scalar MyScenario.node[398].nic.mac1609_4 	SlotsBackoff 	1
scalar MyScenario.node[398].nic.mac1609_4 	NumInternalContention 	0
scalar MyScenario.node[398].nic.mac1609_4 	totalBusyTime 	0.000929
scalar MyScenario.node[398].veinsmobility 	startTime 	11
scalar MyScenario.node[398].veinsmobility 	totalTime 	6
scalar MyScenario.node[398].veinsmobility 	stopTime 	18
scalar MyScenario.node[398].veinsmobility 	minSpeed 	12.865203967714
scalar MyScenario.node[398].veinsmobility 	maxSpeed 	13.508906640462
scalar MyScenario.node[398].veinsmobility 	totalDistance 	79.497564564482
scalar MyScenario.node[398].veinsmobility 	totalCO2Emission 	11.242848475171
scalar MyScenario.node[157].appl 	generatedWSMs 	1
scalar MyScenario.node[157].appl 	receivedWSMs 	1
scalar MyScenario.node[157].appl 	generatedBSMs 	0
scalar MyScenario.node[157].appl 	receivedBSMs 	0
scalar MyScenario.node[157].appl 	generatedWSAs 	0
scalar MyScenario.node[157].appl 	receivedWSAs 	0
scalar MyScenario.node[157].nic.phy80211p 	busyTime 	0.00016376470588235
scalar MyScenario.node[157].nic.mac1609_4 	ReceivedUnicastPackets 	0
scalar MyScenario.node[157].nic.mac1609_4 	ReceivedBroadcasts 	1
scalar MyScenario.node[157].nic.mac1609_4 	SentPackets 	1
scalar MyScenario.node[157].nic.mac1609_4 	SNIRLostPackets 	11
scalar MyScenario.node[157].nic.mac1609_4 	RXTXLostPackets 	5
scalar MyScenario.node[157].nic.mac1609_4 	TotalLostPackets 	16
scalar MyScenario.node[157].nic.mac1609_4 	DroppedPacketsInMac 	0
scalar MyScenario.node[157].nic.mac1609_4 	TooLittleTime 	0
scalar MyScenario.node[157].nic.mac1609_4 	TimesIntoBackoff 	1
scalar MyScenario.node[157].nic.mac1609_4 	SlotsBackoff 	3
scalar MyScenario.node[157].nic.mac1609_4 	NumInternalContention 	0
scalar MyScenario.node[157].nic.mac1609_4 	totalBusyTime 	0.001161
scalar MyScenario.node[157].veinsmobility 	startTime 	1
scalar MyScenario.node[157].veinsmobility 	totalTime 	16
scalar MyScenario.node[157].veinsmobility 	stopTime 	18
scalar MyScenario.node[157].veinsmobility 	minSpeed 	2.5693215192063
scalar MyScenario.node[157].veinsmobility 	maxSpeed 	13.889208019129
scalar MyScenario.node[157].veinsmobility 	totalDistance 	178.95598971006
scalar MyScenario.node[157].veinsmobility 	totalCO2Emission 	57.299745490099
scalar MyScenario.node[226].appl 	generatedWSMs 	0
scalar MyScenario.node[226].appl 	receivedWSMs 	0
scalar MyScenario.node[226].appl 	generatedBSMs 	0
scalar MyScenario.node[226].appl 	receivedBSMs 	0
scalar MyScenario.node[226].appl 	generatedWSAs 	0
scalar MyScenario.node[226].appl 	receivedWSAs 	0
scalar MyScenario.node[226].nic.phy80211p 	busyTime 	0
scalar MyScenario.node[226].nic.mac1609_4 	ReceivedUnicastPackets 	0
scalar MyScenario.node[226].nic.mac1609_4 	ReceivedBroadcasts 	0
scalar MyScenario.node[226].nic.mac1609_4 	SentPackets 	0
scalar MyScenario.node[226].nic.mac1609_4 	SNIRLostPackets 	0
scalar MyScenario.node[226].nic.mac1609_4 	RXTXLostPackets 	0
scalar MyScenario.node[226].nic.mac1609_4 	TotalLostPackets 	0
scalar MyScenario.node[226].nic.mac1609_4 	DroppedPacketsInMac 	0
scalar MyScenario.node[226].nic.mac1609_4 	TooLittleTime 	0
scalar MyScenario.node[226].nic.mac1609_4 	TimesIntoBackoff 	0
scalar MyScenario.node[226].nic.mac1609_4 	SlotsBackoff 	0
scalar MyScenario.node[226].nic.mac1609_4 	NumInternalContention 	0
scalar MyScenario.node[226].nic.mac1609_4 	totalBusyTime 	0
scalar MyScenario.node[226].veinsmobility 	startTime 	1
scalar MyScenario.node[226].veinsmobility 	totalTime 	24
scalar MyScenario.node[226].veinsmobility 	stopTime 	26
scalar MyScenario.node[226].veinsmobility 	minSpeed 	0.00039860137759766
scalar MyScenario.node[226].veinsmobility 	maxSpeed 	13.623459554301
scalar MyScenario.node[226].veinsmobility 	totalDistance 	182.26935755763
scalar MyScenario.node[226].veinsmobility 	totalCO2Emission 	75.23771762396
scalar MyScenario.node[40].appl 	generatedWSMs 	0
scalar MyScenario.node[40].appl 	receivedWSMs 	0
scalar MyScenario.node[40].appl 	generatedBSMs 	0
scalar MyScenario.node[40].appl 	receivedBSMs 	0
scalar MyScenario.node[40].appl 	generatedWSAs 	0
scalar MyScenario.node[40].appl 	receivedWSAs 	0
scalar MyScenario.node[40].nic.phy80211p 	busyTime 	0.00014914285714286
scalar MyScenario.node[40].nic.mac1609_4 	ReceivedUnicastPackets 	0
scalar MyScenario.node[40].nic.mac1609_4 	ReceivedBroadcasts 	0
scalar MyScenario.node[40].nic.mac1609_4 	SentPackets 	0
scalar MyScenario.node[40].nic.mac1609_4 	SNIRLostPackets 	18
scalar MyScenario.node[40].nic.mac1609_4 	RXTXLostPackets 	0
scalar MyScenario.node[40].nic.mac1609_4 	TotalLostPackets 	18
scalar MyScenario.node[40].nic.mac1609_4 	DroppedPacketsInMac 	0
scalar MyScenario.node[40].nic.mac1609_4 	TooLittleTime 	0
scalar MyScenario.node[40].nic.mac1609_4 	TimesIntoBackoff 	0
scalar MyScenario.node[40].nic.mac1609_4 	SlotsBackoff 	0
scalar MyScenario.node[40].nic.mac1609_4 	NumInternalContention 	0
scalar MyScenario.node[40].nic.mac1609_4 	totalBusyTime 	0.000696
scalar MyScenario.node[40].veinsmobility 	startTime 	1
scalar MyScenario.node[40].veinsmobility 	totalTime 	27
scalar MyScenario.node[40].veinsmobility 	stopTime 	29
scalar MyScenario.node[40].veinsmobility 	minSpeed 	1.3842603985686
scalar MyScenario.node[40].veinsmobility 	maxSpeed 	13.809113841131
scalar MyScenario.node[40].veinsmobility 	totalDistance 	273.59310612364
scalar MyScenario.node[40].veinsmobility 	totalCO2Emission 	97.48264035718
scalar MyScenario.node[278].appl 	generatedWSMs 	0
scalar MyScenario.node[278].appl 	receivedWSMs 	0
scalar MyScenario.node[278].appl 	generatedBSMs 	0
scalar MyScenario.node[278].appl 	receivedBSMs 	0
scalar MyScenario.node[278].appl 	generatedWSAs 	0
scalar MyScenario.node[278].appl 	receivedWSAs 	0
scalar MyScenario.node[278].nic.phy80211p 	busyTime 	0
scalar MyScenario.node[278].nic.mac1609_4 	ReceivedUnicastPackets 	0
scalar MyScenario.node[278].nic.mac1609_4 	ReceivedBroadcasts 	0
scalar MyScenario.node[278].nic.mac1609_4 	SentPackets 	0
scalar MyScenario.node[278].nic.mac1609_4 	SNIRLostPackets 	0
scalar MyScenario.node[278].nic.mac1609_4 	RXTXLostPackets 	0
scalar MyScenario.node[278].nic.mac1609_4 	TotalLostPackets 	0
scalar MyScenario.node[278].nic.mac1609_4 	DroppedPacketsInMac 	0
scalar MyScenario.node[278].nic.mac1609_4 	TooLittleTime 	0
scalar MyScenario.node[278].nic.mac1609_4 	TimesIntoBackoff 	0
scalar MyScenario.node[278].nic.mac1609_4 	SlotsBackoff 	0
scalar MyScenario.node[278].nic.mac1609_4 	NumInternalContention 	0
scalar MyScenario.node[278].nic.mac1609_4 	totalBusyTime 	0
scalar MyScenario.node[278].veinsmobility 	startTime 	4
scalar MyScenario.node[278].veinsmobility 	totalTime 	25
scalar MyScenario.node[278].veinsmobility 	stopTime 	30
scalar MyScenario.node[278].veinsmobility 	minSpeed 	2.0219877366908
scalar MyScenario.node[278].veinsmobility 	maxSpeed 	13.658886987744
scalar MyScenario.node[278].veinsmobility 	totalDistance 	264.54649900191
scalar MyScenario.node[278].veinsmobility 	totalCO2Emission 	87.112685399535
scalar MyScenario.node[20].appl 	generatedWSMs 	1
scalar MyScenario.node[20].appl 	receivedWSMs 	12
scalar MyScenario.node[20].appl 	generatedBSMs 	0
scalar MyScenario.node[20].appl 	receivedBSMs 	0
scalar MyScenario.node[20].appl 	generatedWSAs 	0
scalar MyScenario.node[20].appl 	receivedWSAs 	0
scalar MyScenario.node[20].nic.phy80211p 	busyTime 	0.0003712
scalar MyScenario.node[20].nic.mac1609_4 	ReceivedUnicastPackets 	0
scalar MyScenario.node[20].nic.mac1609_4 	ReceivedBroadcasts 	12
scalar MyScenario.node[20].nic.mac1609_4 	SentPackets 	1
scalar MyScenario.node[20].nic.mac1609_4 	SNIRLostPackets 	36
scalar MyScenario.node[20].nic.mac1609_4 	RXTXLostPackets 	13
scalar MyScenario.node[20].nic.mac1609_4 	TotalLostPackets 	49
scalar MyScenario.node[20].nic.mac1609_4 	DroppedPacketsInMac 	0
scalar MyScenario.node[20].nic.mac1609_4 	TooLittleTime 	0
scalar MyScenario.node[20].nic.mac1609_4 	TimesIntoBackoff 	1
scalar MyScenario.node[20].nic.mac1609_4 	SlotsBackoff 	3
scalar MyScenario.node[20].nic.mac1609_4 	NumInternalContention 	0
scalar MyScenario.node[20].nic.mac1609_4 	totalBusyTime 	0.004873062246
scalar MyScenario.node[20].veinsmobility 	startTime 	1
scalar MyScenario.node[20].veinsmobility 	totalTime 	29
scalar MyScenario.node[20].veinsmobility 	stopTime 	31
scalar MyScenario.node[20].veinsmobility 	minSpeed 	4.3332782468932e-05
scalar MyScenario.node[20].veinsmobility 	maxSpeed 	13.822521568439
scalar MyScenario.node[20].veinsmobility 	totalDistance 	181.44864773789
scalar MyScenario.node[20].veinsmobility 	totalCO2Emission 	87.646171144113
scalar MyScenario.node[369].appl 	generatedWSMs 	0
scalar MyScenario.node[369].appl 	receivedWSMs 	0
scalar MyScenario.node[369].appl 	generatedBSMs 	0
scalar MyScenario.node[369].appl 	receivedBSMs 	0
scalar MyScenario.node[369].appl 	generatedWSAs 	0
scalar MyScenario.node[369].appl 	receivedWSAs 	0
scalar MyScenario.node[369].nic.phy80211p 	busyTime 	2.784e-05
scalar MyScenario.node[369].nic.mac1609_4 	ReceivedUnicastPackets 	0
scalar MyScenario.node[369].nic.mac1609_4 	ReceivedBroadcasts 	0
scalar MyScenario.node[369].nic.mac1609_4 	SentPackets 	0
scalar MyScenario.node[369].nic.mac1609_4 	SNIRLostPackets 	3
scalar MyScenario.node[369].nic.mac1609_4 	RXTXLostPackets 	0
scalar MyScenario.node[369].nic.mac1609_4 	TotalLostPackets 	3
scalar MyScenario.node[369].nic.mac1609_4 	DroppedPacketsInMac 	0
scalar MyScenario.node[369].nic.mac1609_4 	TooLittleTime 	0
scalar MyScenario.node[369].nic.mac1609_4 	TimesIntoBackoff 	0
scalar MyScenario.node[369].nic.mac1609_4 	SlotsBackoff 	0
scalar MyScenario.node[369].nic.mac1609_4 	NumInternalContention 	0
scalar MyScenario.node[369].nic.mac1609_4 	totalBusyTime 	0.000232
scalar MyScenario.node[369].veinsmobility 	startTime 	7
scalar MyScenario.node[369].veinsmobility 	totalTime 	24
scalar MyScenario.node[369].veinsmobility 	stopTime 	32
scalar MyScenario.node[369].veinsmobility 	minSpeed 	2.0928147564409
scalar MyScenario.node[369].veinsmobility 	maxSpeed 	13.780542413658
scalar MyScenario.node[369].veinsmobility 	totalDistance 	276.9543870522
scalar MyScenario.node[369].veinsmobility 	totalCO2Emission 	69.803882845046
scalar MyScenario.node[256].appl 	generatedWSMs 	1
scalar MyScenario.node[256].appl 	receivedWSMs 	1
scalar MyScenario.node[256].appl 	generatedBSMs 	0
scalar MyScenario.node[256].appl 	receivedBSMs 	0
scalar MyScenario.node[256].appl 	generatedWSAs 	0
scalar MyScenario.node[256].appl 	receivedWSAs 	0
scalar MyScenario.node[256].nic.phy80211p 	busyTime 	0.00012
scalar MyScenario.node[256].nic.mac1609_4 	ReceivedUnicastPackets 	0
scalar MyScenario.node[256].nic.mac1609_4 	ReceivedBroadcasts 	1
scalar MyScenario.node[256].nic.mac1609_4 	SentPackets 	1
scalar MyScenario.node[256].nic.mac1609_4 	SNIRLostPackets 	14
scalar MyScenario.node[256].nic.mac1609_4 	RXTXLostPackets 	31
scalar MyScenario.node[256].nic.mac1609_4 	TotalLostPackets 	45
scalar MyScenario.node[256].nic.mac1609_4 	DroppedPacketsInMac 	0
scalar MyScenario.node[256].nic.mac1609_4 	TooLittleTime 	0
scalar MyScenario.node[256].nic.mac1609_4 	TimesIntoBackoff 	1
scalar MyScenario.node[256].nic.mac1609_4 	SlotsBackoff 	2
scalar MyScenario.node[256].nic.mac1609_4 	NumInternalContention 	0
scalar MyScenario.node[256].nic.mac1609_4 	totalBusyTime 	0.001161190786
scalar MyScenario.node[256].veinsmobility 	startTime 	4
scalar MyScenario.node[256].veinsmobility 	totalTime 	28
scalar MyScenario.node[256].veinsmobility 	stopTime 	33
scalar MyScenario.node[256].veinsmobility 	minSpeed 	0.0018252697846825
scalar MyScenario.node[256].veinsmobility 	maxSpeed 	13.519212794164
scalar MyScenario.node[256].veinsmobility 	totalDistance 	175.19245988612
scalar MyScenario.node[256].veinsmobility 	totalCO2Emission 	85.388172888179
scalar MyScenario.node[13].appl 	generatedWSMs 	1
scalar MyScenario.node[13].appl 	receivedWSMs 	5
scalar MyScenario.node[13].appl 	generatedBSMs 	0
scalar MyScenario.node[13].appl 	receivedBSMs 	0
scalar MyScenario.node[13].appl 	generatedWSAs 	0
scalar MyScenario.node[13].appl 	receivedWSAs 	0
scalar MyScenario.node[13].nic.phy80211p 	busyTime 	0.0003045
scalar MyScenario.node[13].nic.mac1609_4 	ReceivedUnicastPackets 	0
scalar MyScenario.node[13].nic.mac1609_4 	ReceivedBroadcasts 	5
scalar MyScenario.node[13].nic.mac1609_4 	SentPackets 	1
scalar MyScenario.node[13].nic.mac1609_4 	SNIRLostPackets 	37
scalar MyScenario.node[13].nic.mac1609_4 	RXTXLostPackets 	2
scalar MyScenario.node[13].nic.mac1609_4 	TotalLostPackets 	39
scalar MyScenario.node[13].nic.mac1609_4 	DroppedPacketsInMac 	0
scalar MyScenario.node[13].nic.mac1609_4 	TooLittleTime 	0
scalar MyScenario.node[13].nic.mac1609_4 	TimesIntoBackoff 	1
scalar MyScenario.node[13].nic.mac1609_4 	SlotsBackoff 	1
scalar MyScenario.node[13].nic.mac1609_4 	NumInternalContention 	0
scalar MyScenario.node[13].nic.mac1609_4 	totalBusyTime 	0.002321
scalar MyScenario.node[13].veinsmobility 	startTime 	1
scalar MyScenario.node[13].veinsmobility 	totalTime 	31
scalar MyScenario.node[13].veinsmobility 	stopTime 	33
scalar MyScenario.node[13].veinsmobility 	minSpeed 	2.2583690475207
scalar MyScenario.node[13].veinsmobility 	maxSpeed 	13.8789388865
scalar MyScenario.node[13].veinsmobility 	totalDistance 	375.67985479592
scalar MyScenario.node[13].veinsmobility 	totalCO2Emission 	96.097964604721
scalar MyScenario.node[30].appl 	generatedWSMs 	1
scalar MyScenario.node[30].appl 	receivedWSMs 	1
scalar MyScenario.node[30].appl 	generatedBSMs 	0
scalar MyScenario.node[30].appl 	receivedBSMs 	0
scalar MyScenario.node[30].appl 	generatedWSAs 	0
scalar MyScenario.node[30].appl 	receivedWSAs 	0
scalar MyScenario.node[30].nic.phy80211p 	busyTime 	0.000145
scalar MyScenario.node[30].nic.mac1609_4 	ReceivedUnicastPackets 	0
scalar MyScenario.node[30].nic.mac1609_4 	ReceivedBroadcasts 	1
scalar MyScenario.node[30].nic.mac1609_4 	SentPackets 	1
scalar MyScenario.node[30].nic.mac1609_4 	SNIRLostPackets 	19
scalar MyScenario.node[30].nic.mac1609_4 	RXTXLostPackets 	23
scalar MyScenario.node[30].nic.mac1609_4 	TotalLostPackets 	42
scalar MyScenario.node[30].nic.mac1609_4 	DroppedPacketsInMac 	0
scalar MyScenario.node[30].nic.mac1609_4 	TooLittleTime 	0
scalar MyScenario.node[30].nic.mac1609_4 	TimesIntoBackoff 	1
scalar MyScenario.node[30].nic.mac1609_4 	SlotsBackoff 	0
scalar MyScenario.node[30].nic.mac1609_4 	NumInternalContention 	0
scalar MyScenario.node[30].nic.mac1609_4 	totalBusyTime 	0.001161297324
scalar MyScenario.node[30].veinsmobility 	startTime 	1
scalar MyScenario.node[30].veinsmobility 	totalTime 	31
scalar MyScenario.node[30].veinsmobility 	stopTime 	33
scalar MyScenario.node[30].veinsmobility 	minSpeed 	0.08956336516369
scalar MyScenario.node[30].veinsmobility 	maxSpeed 	13.808294432028
scalar MyScenario.node[30].veinsmobility 	totalDistance 	285.62256151384
scalar MyScenario.node[30].veinsmobility 	totalCO2Emission 	100.87790635207
scalar MyScenario.node[44].appl 	generatedWSMs 	0
scalar MyScenario.node[44].appl 	receivedWSMs 	0
scalar MyScenario.node[44].appl 	generatedBSMs 	0
scalar MyScenario.node[44].appl 	receivedBSMs 	0
scalar MyScenario.node[44].appl 	generatedWSAs 	0
scalar MyScenario.node[44].appl 	receivedWSAs 	0
scalar MyScenario.node[44].nic.phy80211p 	busyTime 	2.1090909090909e-05
scalar MyScenario.node[44].nic.mac1609_4 	ReceivedUnicastPackets 	0
scalar MyScenario.node[44].nic.mac1609_4 	ReceivedBroadcasts 	0
scalar MyScenario.node[44].nic.mac1609_4 	SentPackets 	0
scalar MyScenario.node[44].nic.mac1609_4 	SNIRLostPackets 	3
scalar MyScenario.node[44].nic.mac1609_4 	RXTXLostPackets 	0
scalar MyScenario.node[44].nic.mac1609_4 	TotalLostPackets 	3
scalar MyScenario.node[44].nic.mac1609_4 	DroppedPacketsInMac 	0
scalar MyScenario.node[44].nic.mac1609_4 	TooLittleTime 	0
scalar MyScenario.node[44].nic.mac1609_4 	TimesIntoBackoff 	0
scalar MyScenario.node[44].nic.mac1609_4 	SlotsBackoff 	0
scalar MyScenario.node[44].nic.mac1609_4 	NumInternalContention 	0
scalar MyScenario.node[44].nic.mac1609_4 	totalBusyTime 	0.000232
scalar MyScenario.node[44].veinsmobility 	startTime 	1
scalar MyScenario.node[44].veinsmobility 	totalTime 	32
scalar MyScenario.node[44].veinsmobility 	stopTime 	34
scalar MyScenario.node[44].veinsmobility 	minSpeed 	2.5098909504246
scalar MyScenario.node[44].veinsmobility 	maxSpeed 	13.744098601444
scalar MyScenario.node[44].veinsmobility 	totalDistance 	370.73142942719
scalar MyScenario.node[44].veinsmobility 	totalCO2Emission 	105.21336609575
scalar MyScenario.node[24].appl 	generatedWSMs 	0
scalar MyScenario.node[24].appl 	receivedWSMs 	0
scalar MyScenario.node[24].appl 	generatedBSMs 	0
scalar MyScenario.node[24].appl 	receivedBSMs 	0
scalar MyScenario.node[24].appl 	generatedWSAs 	0
scalar MyScenario.node[24].appl 	receivedWSAs 	0
scalar MyScenario.node[24].nic.phy80211p 	busyTime 	0
scalar MyScenario.node[24].nic.mac1609_4 	ReceivedUnicastPackets 	0
scalar MyScenario.node[24].nic.mac1609_4 	ReceivedBroadcasts 	0
scalar MyScenario.node[24].nic.mac1609_4 	SentPackets 	0
scalar MyScenario.node[24].nic.mac1609_4 	SNIRLostPackets 	0
scalar MyScenario.node[24].nic.mac1609_4 	RXTXLostPackets 	0
scalar MyScenario.node[24].nic.mac1609_4 	TotalLostPackets 	0
scalar MyScenario.node[24].nic.mac1609_4 	DroppedPacketsInMac 	0
scalar MyScenario.node[24].nic.mac1609_4 	TooLittleTime 	0
scalar MyScenario.node[24].nic.mac1609_4 	TimesIntoBackoff 	0
scalar MyScenario.node[24].nic.mac1609_4 	SlotsBackoff 	0
scalar MyScenario.node[24].nic.mac1609_4 	NumInternalContention 	0
scalar MyScenario.node[24].nic.mac1609_4 	totalBusyTime 	0
scalar MyScenario.node[24].veinsmobility 	startTime 	1
scalar MyScenario.node[24].veinsmobility 	totalTime 	32
scalar MyScenario.node[24].veinsmobility 	stopTime 	34
scalar MyScenario.node[24].veinsmobility 	minSpeed 	2.2567267203471
scalar MyScenario.node[24].veinsmobility 	maxSpeed 	13.811953887553
scalar MyScenario.node[24].veinsmobility 	totalDistance 	369.61737741449
scalar MyScenario.node[24].veinsmobility 	totalCO2Emission 	101.22419170737
scalar MyScenario.node[171].appl 	generatedWSMs 	0
scalar MyScenario.node[171].appl 	receivedWSMs 	0
scalar MyScenario.node[171].appl 	generatedBSMs 	0
scalar MyScenario.node[171].appl 	receivedBSMs 	0
scalar MyScenario.node[171].appl 	generatedWSAs 	0
scalar MyScenario.node[171].appl 	receivedWSAs 	0
scalar MyScenario.node[171].nic.phy80211p 	busyTime 	4.2181818181818e-05
scalar MyScenario.node[171].nic.mac1609_4 	ReceivedUnicastPackets 	0
scalar MyScenario.node[171].nic.mac1609_4 	ReceivedBroadcasts 	0
scalar MyScenario.node[171].nic.mac1609_4 	SentPackets 	0
scalar MyScenario.node[171].nic.mac1609_4 	SNIRLostPackets 	6
scalar MyScenario.node[171].nic.mac1609_4 	RXTXLostPackets 	0
scalar MyScenario.node[171].nic.mac1609_4 	TotalLostPackets 	6
scalar MyScenario.node[171].nic.mac1609_4 	DroppedPacketsInMac 	0
scalar MyScenario.node[171].nic.mac1609_4 	TooLittleTime 	0
scalar MyScenario.node[171].nic.mac1609_4 	TimesIntoBackoff 	0
scalar MyScenario.node[171].nic.mac1609_4 	SlotsBackoff 	0
scalar MyScenario.node[171].nic.mac1609_4 	NumInternalContention 	0
scalar MyScenario.node[171].nic.mac1609_4 	totalBusyTime 	0.000464
scalar MyScenario.node[171].veinsmobility 	startTime 	1
scalar MyScenario.node[171].veinsmobility 	totalTime 	32
scalar MyScenario.node[171].veinsmobility 	stopTime 	34
scalar MyScenario.node[171].veinsmobility 	minSpeed 	1.3560133975698
scalar MyScenario.node[171].veinsmobility 	maxSpeed 	13.869779100898
scalar MyScenario.node[171].veinsmobility 	totalDistance 	373.17062726398
scalar MyScenario.node[171].veinsmobility 	totalCO2Emission 	87.868606273988
scalar MyScenario.node[372].appl 	generatedWSMs 	0
scalar MyScenario.node[372].appl 	receivedWSMs 	0
scalar MyScenario.node[372].appl 	generatedBSMs 	0
scalar MyScenario.node[372].appl 	receivedBSMs 	0
scalar MyScenario.node[372].appl 	generatedWSAs 	0
scalar MyScenario.node[372].appl 	receivedWSAs 	0
scalar MyScenario.node[372].nic.phy80211p 	busyTime 	0
scalar MyScenario.node[372].nic.mac1609_4 	ReceivedUnicastPackets 	0
scalar MyScenario.node[372].nic.mac1609_4 	ReceivedBroadcasts 	0
scalar MyScenario.node[372].nic.mac1609_4 	SentPackets 	0
scalar MyScenario.node[372].nic.mac1609_4 	SNIRLostPackets 	0
scalar MyScenario.node[372].nic.mac1609_4 	RXTXLostPackets 	0
scalar MyScenario.node[372].nic.mac1609_4 	TotalLostPackets 	0
scalar MyScenario.node[372].nic.mac1609_4 	DroppedPacketsInMac 	0
scalar MyScenario.node[372].nic.mac1609_4 	TooLittleTime 	0
scalar MyScenario.node[372].nic.mac1609_4 	TimesIntoBackoff 	0
scalar MyScenario.node[372].nic.mac1609_4 	SlotsBackoff 	0
scalar MyScenario.node[372].nic.mac1609_4 	NumInternalContention 	0
scalar MyScenario.node[372].nic.mac1609_4 	totalBusyTime 	0
scalar MyScenario.node[372].veinsmobility 	startTime 	7
scalar MyScenario.node[372].veinsmobility 	totalTime 	27
scalar MyScenario.node[372].veinsmobility 	stopTime 	35
scalar MyScenario.node[372].veinsmobility 	minSpeed 	0.072641316515696
scalar MyScenario.node[372].veinsmobility 	maxSpeed 	13.893686277489
scalar MyScenario.node[372].veinsmobility 	totalDistance 	287.07512305131
scalar MyScenario.node[372].veinsmobility 	totalCO2Emission 	90.556349432386
scalar MyScenario.node[400].appl 	generatedWSMs 	1
scalar MyScenario.node[400].appl 	receivedWSMs 	3
scalar MyScenario.node[400].appl 	generatedBSMs 	0
scalar MyScenario.node[400].appl 	receivedBSMs 	0
scalar MyScenario.node[400].appl 	generatedWSAs 	0
scalar MyScenario.node[400].appl 	receivedWSAs 	0
scalar MyScenario.node[400].nic.phy80211p 	busyTime 	0.00024166666666667
scalar MyScenario.node[400].nic.mac1609_4 	ReceivedUnicastPackets 	0
scalar MyScenario.node[400].nic.mac1609_4 	ReceivedBroadcasts 	3
scalar MyScenario.node[400].nic.mac1609_4 	SentPackets 	1
scalar MyScenario.node[400].nic.mac1609_4 	SNIRLostPackets 	22
scalar MyScenario.node[400].nic.mac1609_4 	RXTXLostPackets 	5
scalar MyScenario.node[400].nic.mac1609_4 	TotalLostPackets 	27
scalar MyScenario.node[400].nic.mac1609_4 	DroppedPacketsInMac 	0
scalar MyScenario.node[400].nic.mac1609_4 	TooLittleTime 	0
scalar MyScenario.node[400].nic.mac1609_4 	TimesIntoBackoff 	1
scalar MyScenario.node[400].nic.mac1609_4 	SlotsBackoff 	0
scalar MyScenario.node[400].nic.mac1609_4 	NumInternalContention 	0
scalar MyScenario.node[400].nic.mac1609_4 	totalBusyTime 	0.001393
scalar MyScenario.node[400].veinsmobility 	startTime 	12
scalar MyScenario.node[400].veinsmobility 	totalTime 	23
scalar MyScenario.node[400].veinsmobility 	stopTime 	36
scalar MyScenario.node[400].veinsmobility 	minSpeed 	2.6755521281121
scalar MyScenario.node[400].veinsmobility 	maxSpeed 	13.881318006921
scalar MyScenario.node[400].veinsmobility 	totalDistance 	259.65135654532
scalar MyScenario.node[400].veinsmobility 	totalCO2Emission 	69.96241189699
scalar MyScenario.node[81].appl 	generatedWSMs 	1
scalar MyScenario.node[81].appl 	receivedWSMs 	1
scalar MyScenario.node[81].appl 	generatedBSMs 	0
scalar MyScenario.node[81].appl 	receivedBSMs 	0
scalar MyScenario.node[81].appl 	generatedWSAs 	0
scalar MyScenario.node[81].appl 	receivedWSAs 	0
scalar MyScenario.node[81].nic.phy80211p 	busyTime 	0.00024984615384615
scalar MyScenario.node[81].nic.mac1609_4 	ReceivedUnicastPackets 	0
scalar MyScenario.node[81].nic.mac1609_4 	ReceivedBroadcasts 	1
scalar MyScenario.node[81].nic.mac1609_4 	SentPackets 	1
scalar MyScenario.node[81].nic.mac1609_4 	SNIRLostPackets 	41
scalar MyScenario.node[81].nic.mac1609_4 	RXTXLostPackets 	12
scalar MyScenario.node[81].nic.mac1609_4 	TotalLostPackets 	53
scalar MyScenario.node[81].nic.mac1609_4 	DroppedPacketsInMac 	0
scalar MyScenario.node[81].nic.mac1609_4 	TooLittleTime 	0
scalar MyScenario.node[81].nic.mac1609_4 	TimesIntoBackoff 	1
scalar MyScenario.node[81].nic.mac1609_4 	SlotsBackoff 	3
scalar MyScenario.node[81].nic.mac1609_4 	NumInternalContention 	0
scalar MyScenario.node[81].nic.mac1609_4 	totalBusyTime 	0.001393134322
scalar MyScenario.node[81].veinsmobility 	startTime 	1
scalar MyScenario.node[81].veinsmobility 	totalTime 	38
scalar MyScenario.node[81].veinsmobility 	stopTime 	40
scalar MyScenario.node[81].veinsmobility 	minSpeed 	0.059975874935806
scalar MyScenario.node[81].veinsmobility 	maxSpeed 	13.739335820707
scalar MyScenario.node[81].veinsmobility 	totalDistance 	376.83163927531
scalar MyScenario.node[81].veinsmobility 	totalCO2Emission 	114.25212075408
scalar MyScenario.node[327].appl 	generatedWSMs 	1
scalar MyScenario.node[327].appl 	receivedWSMs 	1
scalar MyScenario.node[327].appl 	generatedBSMs 	0
scalar MyScenario.node[327].appl 	receivedBSMs 	0
scalar MyScenario.node[327].appl 	generatedWSAs 	0
scalar MyScenario.node[327].appl 	receivedWSAs 	0
scalar MyScenario.node[327].nic.phy80211p 	busyTime 	0.00016755555555556
scalar MyScenario.node[327].nic.mac1609_4 	ReceivedUnicastPackets 	0
scalar MyScenario.node[327].nic.mac1609_4 	ReceivedBroadcasts 	1
scalar MyScenario.node[327].nic.mac1609_4 	SentPackets 	1
scalar MyScenario.node[327].nic.mac1609_4 	SNIRLostPackets 	25
scalar MyScenario.node[327].nic.mac1609_4 	RXTXLostPackets 	17
scalar MyScenario.node[327].nic.mac1609_4 	TotalLostPackets 	42
scalar MyScenario.node[327].nic.mac1609_4 	DroppedPacketsInMac 	0
scalar MyScenario.node[327].nic.mac1609_4 	TooLittleTime 	0
scalar MyScenario.node[327].nic.mac1609_4 	TimesIntoBackoff 	1
scalar MyScenario.node[327].nic.mac1609_4 	SlotsBackoff 	2
scalar MyScenario.node[327].nic.mac1609_4 	NumInternalContention 	0
scalar MyScenario.node[327].nic.mac1609_4 	totalBusyTime 	0.001161120969
scalar MyScenario.node[327].veinsmobility 	startTime 	4
scalar MyScenario.node[327].veinsmobility 	totalTime 	35
scalar MyScenario.node[327].veinsmobility 	stopTime 	40
scalar MyScenario.node[327].veinsmobility 	minSpeed 	2.3885654749755
scalar MyScenario.node[327].veinsmobility 	maxSpeed 	13.791566525446
scalar MyScenario.node[327].veinsmobility 	totalDistance 	368.96241121118
scalar MyScenario.node[327].veinsmobility 	totalCO2Emission 	125.13076644394
scalar MyScenario.node[353].appl 	generatedWSMs 	0
scalar MyScenario.node[353].appl 	receivedWSMs 	0
scalar MyScenario.node[353].appl 	generatedBSMs 	0
scalar MyScenario.node[353].appl 	receivedBSMs 	0
scalar MyScenario.node[353].appl 	generatedWSAs 	0
scalar MyScenario.node[353].appl 	receivedWSAs 	0
scalar MyScenario.node[353].nic.phy80211p 	busyTime 	0
scalar MyScenario.node[353].nic.mac1609_4 	ReceivedUnicastPackets 	0
scalar MyScenario.node[353].nic.mac1609_4 	ReceivedBroadcasts 	0
scalar MyScenario.node[353].nic.mac1609_4 	SentPackets 	0
scalar MyScenario.node[353].nic.mac1609_4 	SNIRLostPackets 	0
scalar MyScenario.node[353].nic.mac1609_4 	RXTXLostPackets 	0
scalar MyScenario.node[353].nic.mac1609_4 	TotalLostPackets 	0
scalar MyScenario.node[353].nic.mac1609_4 	DroppedPacketsInMac 	0
scalar MyScenario.node[353].nic.mac1609_4 	TooLittleTime 	0
scalar MyScenario.node[353].nic.mac1609_4 	TimesIntoBackoff 	0
scalar MyScenario.node[353].nic.mac1609_4 	SlotsBackoff 	0
scalar MyScenario.node[353].nic.mac1609_4 	NumInternalContention 	0
scalar MyScenario.node[353].nic.mac1609_4 	totalBusyTime 	0
scalar MyScenario.node[353].veinsmobility 	startTime 	7
scalar MyScenario.node[353].veinsmobility 	totalTime 	33
scalar MyScenario.node[353].veinsmobility 	stopTime 	41
scalar MyScenario.node[353].veinsmobility 	minSpeed 	2.1271467620507
scalar MyScenario.node[353].veinsmobility 	maxSpeed 	13.804067765083
scalar MyScenario.node[353].veinsmobility 	totalDistance 	353.85179439837
scalar MyScenario.node[353].veinsmobility 	totalCO2Emission 	114.66843523454
scalar MyScenario.node[93].appl 	generatedWSMs 	0
scalar MyScenario.node[93].appl 	receivedWSMs 	0
scalar MyScenario.node[93].appl 	generatedBSMs 	0
scalar MyScenario.node[93].appl 	receivedBSMs 	0
scalar MyScenario.node[93].appl 	generatedWSAs 	0
scalar MyScenario.node[93].appl 	receivedWSAs 	0
scalar MyScenario.node[93].nic.phy80211p 	busyTime 	2.32e-05
scalar MyScenario.node[93].nic.mac1609_4 	ReceivedUnicastPackets 	0
scalar MyScenario.node[93].nic.mac1609_4 	ReceivedBroadcasts 	0
scalar MyScenario.node[93].nic.mac1609_4 	SentPackets 	0
scalar MyScenario.node[93].nic.mac1609_4 	SNIRLostPackets 	4
scalar MyScenario.node[93].nic.mac1609_4 	RXTXLostPackets 	0
scalar MyScenario.node[93].nic.mac1609_4 	TotalLostPackets 	4
scalar MyScenario.node[93].nic.mac1609_4 	DroppedPacketsInMac 	0
scalar MyScenario.node[93].nic.mac1609_4 	TooLittleTime 	0
scalar MyScenario.node[93].nic.mac1609_4 	TimesIntoBackoff 	0
scalar MyScenario.node[93].nic.mac1609_4 	SlotsBackoff 	0
scalar MyScenario.node[93].nic.mac1609_4 	NumInternalContention 	0
scalar MyScenario.node[93].nic.mac1609_4 	totalBusyTime 	0.000232
scalar MyScenario.node[93].veinsmobility 	startTime 	1
scalar MyScenario.node[93].veinsmobility 	totalTime 	39
scalar MyScenario.node[93].veinsmobility 	stopTime 	41
scalar MyScenario.node[93].veinsmobility 	minSpeed 	1.9344736300642
scalar MyScenario.node[93].veinsmobility 	maxSpeed 	13.899340149481
scalar MyScenario.node[93].veinsmobility 	totalDistance 	459.87944505321
scalar MyScenario.node[93].veinsmobility 	totalCO2Emission 	119.92566898909
scalar MyScenario.node[64].appl 	generatedWSMs 	0
scalar MyScenario.node[64].appl 	receivedWSMs 	0
scalar MyScenario.node[64].appl 	generatedBSMs 	0
scalar MyScenario.node[64].appl 	receivedBSMs 	0
scalar MyScenario.node[64].appl 	generatedWSAs 	0
scalar MyScenario.node[64].appl 	receivedWSAs 	0
scalar MyScenario.node[64].nic.phy80211p 	busyTime 	0
scalar MyScenario.node[64].nic.mac1609_4 	ReceivedUnicastPackets 	0
scalar MyScenario.node[64].nic.mac1609_4 	ReceivedBroadcasts 	0
scalar MyScenario.node[64].nic.mac1609_4 	SentPackets 	0
scalar MyScenario.node[64].nic.mac1609_4 	SNIRLostPackets 	0
scalar MyScenario.node[64].nic.mac1609_4 	RXTXLostPackets 	0
scalar MyScenario.node[64].nic.mac1609_4 	TotalLostPackets 	0
scalar MyScenario.node[64].nic.mac1609_4 	DroppedPacketsInMac 	0
scalar MyScenario.node[64].nic.mac1609_4 	TooLittleTime 	0
scalar MyScenario.node[64].nic.mac1609_4 	TimesIntoBackoff 	0
scalar MyScenario.node[64].nic.mac1609_4 	SlotsBackoff 	0
scalar MyScenario.node[64].nic.mac1609_4 	NumInternalContention 	0
scalar MyScenario.node[64].nic.mac1609_4 	totalBusyTime 	0
scalar MyScenario.node[64].veinsmobility 	startTime 	1
scalar MyScenario.node[64].veinsmobility 	totalTime 	39
scalar MyScenario.node[64].veinsmobility 	stopTime 	41
scalar MyScenario.node[64].veinsmobility 	minSpeed 	2.4458826760063
scalar MyScenario.node[64].veinsmobility 	maxSpeed 	13.88747279013
scalar MyScenario.node[64].veinsmobility 	totalDistance 	456.19208796119
scalar MyScenario.node[64].veinsmobility 	totalCO2Emission 	123.87683315839
scalar MyScenario.node[129].appl 	generatedWSMs 	0
scalar MyScenario.node[129].appl 	receivedWSMs 	0
scalar MyScenario.node[129].appl 	generatedBSMs 	0
scalar MyScenario.node[129].appl 	receivedBSMs 	0
scalar MyScenario.node[129].appl 	generatedWSAs 	0
scalar MyScenario.node[129].appl 	receivedWSAs 	0
scalar MyScenario.node[129].nic.phy80211p 	busyTime 	3.48e-05
scalar MyScenario.node[129].nic.mac1609_4 	ReceivedUnicastPackets 	0
scalar MyScenario.node[129].nic.mac1609_4 	ReceivedBroadcasts 	0
scalar MyScenario.node[129].nic.mac1609_4 	SentPackets 	0
scalar MyScenario.node[129].nic.mac1609_4 	SNIRLostPackets 	6
scalar MyScenario.node[129].nic.mac1609_4 	RXTXLostPackets 	0
scalar MyScenario.node[129].nic.mac1609_4 	TotalLostPackets 	6
scalar MyScenario.node[129].nic.mac1609_4 	DroppedPacketsInMac 	0
scalar MyScenario.node[129].nic.mac1609_4 	TooLittleTime 	0
scalar MyScenario.node[129].nic.mac1609_4 	TimesIntoBackoff 	0
scalar MyScenario.node[129].nic.mac1609_4 	SlotsBackoff 	0
scalar MyScenario.node[129].nic.mac1609_4 	NumInternalContention 	0
scalar MyScenario.node[129].nic.mac1609_4 	totalBusyTime 	0.000232
scalar MyScenario.node[129].veinsmobility 	startTime 	1
scalar MyScenario.node[129].veinsmobility 	totalTime 	39
scalar MyScenario.node[129].veinsmobility 	stopTime 	41
scalar MyScenario.node[129].veinsmobility 	minSpeed 	2.3698780839797
scalar MyScenario.node[129].veinsmobility 	maxSpeed 	13.880734243453
scalar MyScenario.node[129].veinsmobility 	totalDistance 	483.39786535792
scalar MyScenario.node[129].veinsmobility 	totalCO2Emission 	105.31068464481
scalar MyScenario.node[126].appl 	generatedWSMs 	1
scalar MyScenario.node[126].appl 	receivedWSMs 	1
scalar MyScenario.node[126].appl 	generatedBSMs 	0
scalar MyScenario.node[126].appl 	receivedBSMs 	0
scalar MyScenario.node[126].appl 	generatedWSAs 	0
scalar MyScenario.node[126].appl 	receivedWSAs 	0
scalar MyScenario.node[126].nic.phy80211p 	busyTime 	5.6585365853659e-06
scalar MyScenario.node[126].nic.mac1609_4 	ReceivedUnicastPackets 	0
scalar MyScenario.node[126].nic.mac1609_4 	ReceivedBroadcasts 	1
scalar MyScenario.node[126].nic.mac1609_4 	SentPackets 	1
scalar MyScenario.node[126].nic.mac1609_4 	SNIRLostPackets 	0
scalar MyScenario.node[126].nic.mac1609_4 	RXTXLostPackets 	21
scalar MyScenario.node[126].nic.mac1609_4 	TotalLostPackets 	21
scalar MyScenario.node[126].nic.mac1609_4 	DroppedPacketsInMac 	0
scalar MyScenario.node[126].nic.mac1609_4 	TooLittleTime 	0
scalar MyScenario.node[126].nic.mac1609_4 	TimesIntoBackoff 	1
scalar MyScenario.node[126].nic.mac1609_4 	SlotsBackoff 	1
scalar MyScenario.node[126].nic.mac1609_4 	NumInternalContention 	0
scalar MyScenario.node[126].nic.mac1609_4 	totalBusyTime 	0.000465029103
scalar MyScenario.node[126].veinsmobility 	startTime 	1
scalar MyScenario.node[126].veinsmobility 	totalTime 	40
scalar MyScenario.node[126].veinsmobility 	stopTime 	42
scalar MyScenario.node[126].veinsmobility 	minSpeed 	2.5599315395346
scalar MyScenario.node[126].veinsmobility 	maxSpeed 	13.763365710364
scalar MyScenario.node[126].veinsmobility 	totalDistance 	479.88956439976
scalar MyScenario.node[126].veinsmobility 	totalCO2Emission 	110.88535325602
scalar MyScenario.node[83].appl 	generatedWSMs 	0
scalar MyScenario.node[83].appl 	receivedWSMs 	0
scalar MyScenario.node[83].appl 	generatedBSMs 	0
scalar MyScenario.node[83].appl 	receivedBSMs 	0
scalar MyScenario.node[83].appl 	generatedWSAs 	0
scalar MyScenario.node[83].appl 	receivedWSAs 	0
scalar MyScenario.node[83].nic.phy80211p 	busyTime 	1.6975609756098e-05
scalar MyScenario.node[83].nic.mac1609_4 	ReceivedUnicastPackets 	0
scalar MyScenario.node[83].nic.mac1609_4 	ReceivedBroadcasts 	0
scalar MyScenario.node[83].nic.mac1609_4 	SentPackets 	0
scalar MyScenario.node[83].nic.mac1609_4 	SNIRLostPackets 	3
scalar MyScenario.node[83].nic.mac1609_4 	RXTXLostPackets 	0
scalar MyScenario.node[83].nic.mac1609_4 	TotalLostPackets 	3
scalar MyScenario.node[83].nic.mac1609_4 	DroppedPacketsInMac 	0
scalar MyScenario.node[83].nic.mac1609_4 	TooLittleTime 	0
scalar MyScenario.node[83].nic.mac1609_4 	TimesIntoBackoff 	0
scalar MyScenario.node[83].nic.mac1609_4 	SlotsBackoff 	0
scalar MyScenario.node[83].nic.mac1609_4 	NumInternalContention 	0
scalar MyScenario.node[83].nic.mac1609_4 	totalBusyTime 	0.000232
scalar MyScenario.node[83].veinsmobility 	startTime 	1
scalar MyScenario.node[83].veinsmobility 	totalTime 	40
scalar MyScenario.node[83].veinsmobility 	stopTime 	42
scalar MyScenario.node[83].veinsmobility 	minSpeed 	2.5799071275163
scalar MyScenario.node[83].veinsmobility 	maxSpeed 	13.889670313848
scalar MyScenario.node[83].veinsmobility 	totalDistance 	478.00568461689
scalar MyScenario.node[83].veinsmobility 	totalCO2Emission 	116.05630416385
scalar MyScenario.node[190].appl 	generatedWSMs 	1
scalar MyScenario.node[190].appl 	receivedWSMs 	11
scalar MyScenario.node[190].appl 	generatedBSMs 	0
scalar MyScenario.node[190].appl 	receivedBSMs 	0
scalar MyScenario.node[190].appl 	generatedWSAs 	0
scalar MyScenario.node[190].appl 	receivedWSAs 	0
scalar MyScenario.node[190].nic.phy80211p 	busyTime 	0.00020990476190476
scalar MyScenario.node[190].nic.mac1609_4 	ReceivedUnicastPackets 	0
scalar MyScenario.node[190].nic.mac1609_4 	ReceivedBroadcasts 	11
scalar MyScenario.node[190].nic.mac1609_4 	SentPackets 	1
scalar MyScenario.node[190].nic.mac1609_4 	SNIRLostPackets 	27
scalar MyScenario.node[190].nic.mac1609_4 	RXTXLostPackets 	13
scalar MyScenario.node[190].nic.mac1609_4 	TotalLostPackets 	40
scalar MyScenario.node[190].nic.mac1609_4 	DroppedPacketsInMac 	0
scalar MyScenario.node[190].nic.mac1609_4 	TooLittleTime 	0
scalar MyScenario.node[190].nic.mac1609_4 	TimesIntoBackoff 	1
scalar MyScenario.node[190].nic.mac1609_4 	SlotsBackoff 	3
scalar MyScenario.node[190].nic.mac1609_4 	NumInternalContention 	0
scalar MyScenario.node[190].nic.mac1609_4 	totalBusyTime 	0.003713138878
scalar MyScenario.node[190].veinsmobility 	startTime 	1
scalar MyScenario.node[190].veinsmobility 	totalTime 	41
scalar MyScenario.node[190].veinsmobility 	stopTime 	43
scalar MyScenario.node[190].veinsmobility 	minSpeed 	2.3242949191714
scalar MyScenario.node[190].veinsmobility 	maxSpeed 	13.880030365428
scalar MyScenario.node[190].veinsmobility 	totalDistance 	478.47786703881
scalar MyScenario.node[190].veinsmobility 	totalCO2Emission 	124.54090475377
scalar MyScenario.node[122].appl 	generatedWSMs 	1
scalar MyScenario.node[122].appl 	receivedWSMs 	10
scalar MyScenario.node[122].appl 	generatedBSMs 	0
scalar MyScenario.node[122].appl 	receivedBSMs 	0
scalar MyScenario.node[122].appl 	generatedWSAs 	0
scalar MyScenario.node[122].appl 	receivedWSAs 	0
scalar MyScenario.node[122].nic.phy80211p 	busyTime 	0.00033142857142857
scalar MyScenario.node[122].nic.mac1609_4 	ReceivedUnicastPackets 	0
scalar MyScenario.node[122].nic.mac1609_4 	ReceivedBroadcasts 	10
scalar MyScenario.node[122].nic.mac1609_4 	SentPackets 	1
scalar MyScenario.node[122].nic.mac1609_4 	SNIRLostPackets 	50
scalar MyScenario.node[122].nic.mac1609_4 	RXTXLostPackets 	21
scalar MyScenario.node[122].nic.mac1609_4 	TotalLostPackets 	71
scalar MyScenario.node[122].nic.mac1609_4 	DroppedPacketsInMac 	0
scalar MyScenario.node[122].nic.mac1609_4 	TooLittleTime 	0
scalar MyScenario.node[122].nic.mac1609_4 	TimesIntoBackoff 	1
scalar MyScenario.node[122].nic.mac1609_4 	SlotsBackoff 	3
scalar MyScenario.node[122].nic.mac1609_4 	NumInternalContention 	0
scalar MyScenario.node[122].nic.mac1609_4 	totalBusyTime 	0.003945117786
scalar MyScenario.node[122].veinsmobility 	startTime 	1
scalar MyScenario.node[122].veinsmobility 	totalTime 	41
scalar MyScenario.node[122].veinsmobility 	stopTime 	43
scalar MyScenario.node[122].veinsmobility 	minSpeed 	2.2556854042457
scalar MyScenario.node[122].veinsmobility 	maxSpeed 	13.84736884681
scalar MyScenario.node[122].veinsmobility 	totalDistance 	455.82420586437
scalar MyScenario.node[122].veinsmobility 	totalCO2Emission 	137.73970556556
scalar MyScenario.node[348].appl 	generatedWSMs 	1
scalar MyScenario.node[348].appl 	receivedWSMs 	13
scalar MyScenario.node[348].appl 	generatedBSMs 	0
scalar MyScenario.node[348].appl 	receivedBSMs 	0
scalar MyScenario.node[348].appl 	generatedWSAs 	0
scalar MyScenario.node[348].appl 	receivedWSAs 	0
scalar MyScenario.node[348].nic.phy80211p 	busyTime 	0.00026769230769231
scalar MyScenario.node[348].nic.mac1609_4 	ReceivedUnicastPackets 	0
scalar MyScenario.node[348].nic.mac1609_4 	ReceivedBroadcasts 	13
scalar MyScenario.node[348].nic.mac1609_4 	SentPackets 	1
scalar MyScenario.node[348].nic.mac1609_4 	SNIRLostPackets 	32
scalar MyScenario.node[348].nic.mac1609_4 	RXTXLostPackets 	12
scalar MyScenario.node[348].nic.mac1609_4 	TotalLostPackets 	44
scalar MyScenario.node[348].nic.mac1609_4 	DroppedPacketsInMac 	0
scalar MyScenario.node[348].nic.mac1609_4 	TooLittleTime 	0
scalar MyScenario.node[348].nic.mac1609_4 	TimesIntoBackoff 	1
scalar MyScenario.node[348].nic.mac1609_4 	SlotsBackoff 	1
scalar MyScenario.node[348].nic.mac1609_4 	NumInternalContention 	0
scalar MyScenario.node[348].nic.mac1609_4 	totalBusyTime 	0.00487316038
scalar MyScenario.node[348].veinsmobility 	startTime 	4
scalar MyScenario.node[348].veinsmobility 	totalTime 	38
scalar MyScenario.node[348].veinsmobility 	stopTime 	43
scalar MyScenario.node[348].veinsmobility 	minSpeed 	0.0038316528281783
scalar MyScenario.node[348].veinsmobility 	maxSpeed 	13.888198443549
scalar MyScenario.node[348].veinsmobility 	totalDistance 	357.10506912143
scalar MyScenario.node[348].veinsmobility 	totalCO2Emission 	116.0827228444
scalar MyScenario.node[229].appl 	generatedWSMs 	1
scalar MyScenario.node[229].appl 	receivedWSMs 	8
scalar MyScenario.node[229].appl 	generatedBSMs 	0
scalar MyScenario.node[229].appl 	receivedBSMs 	0
scalar MyScenario.node[229].appl 	generatedWSAs 	0
scalar MyScenario.node[229].appl 	receivedWSAs 	0
scalar MyScenario.node[229].nic.phy80211p 	busyTime 	0.00016571428571429
scalar MyScenario.node[229].nic.mac1609_4 	ReceivedUnicastPackets 	0
scalar MyScenario.node[229].nic.mac1609_4 	ReceivedBroadcasts 	8
scalar MyScenario.node[229].nic.mac1609_4 	SentPackets 	1
scalar MyScenario.node[229].nic.mac1609_4 	SNIRLostPackets 	22
scalar MyScenario.node[229].nic.mac1609_4 	RXTXLostPackets 	11
scalar MyScenario.node[229].nic.mac1609_4 	TotalLostPackets 	33
scalar MyScenario.node[229].nic.mac1609_4 	DroppedPacketsInMac 	0
scalar MyScenario.node[229].nic.mac1609_4 	TooLittleTime 	0
scalar MyScenario.node[229].nic.mac1609_4 	TimesIntoBackoff 	1
scalar MyScenario.node[229].nic.mac1609_4 	SlotsBackoff 	0
scalar MyScenario.node[229].nic.mac1609_4 	NumInternalContention 	0
scalar MyScenario.node[229].nic.mac1609_4 	totalBusyTime 	0.003017075504
scalar MyScenario.node[229].veinsmobility 	startTime 	1
scalar MyScenario.node[229].veinsmobility 	totalTime 	41
scalar MyScenario.node[229].veinsmobility 	stopTime 	43
scalar MyScenario.node[229].veinsmobility 	minSpeed 	2.2525188852334
scalar MyScenario.node[229].veinsmobility 	maxSpeed 	13.806394157768
scalar MyScenario.node[229].veinsmobility 	totalDistance 	468.54815059327
scalar MyScenario.node[229].veinsmobility 	totalCO2Emission 	131.20057845253
scalar MyScenario.node[162].appl 	generatedWSMs 	1
scalar MyScenario.node[162].appl 	receivedWSMs 	10
scalar MyScenario.node[162].appl 	generatedBSMs 	0
scalar MyScenario.node[162].appl 	receivedBSMs 	0
scalar MyScenario.node[162].appl 	generatedWSAs 	0
scalar MyScenario.node[162].appl 	receivedWSAs 	0
scalar MyScenario.node[162].nic.phy80211p 	busyTime 	0.0001767619047619
scalar MyScenario.node[162].nic.mac1609_4 	ReceivedUnicastPackets 	0
scalar MyScenario.node[162].nic.mac1609_4 	ReceivedBroadcasts 	10
scalar MyScenario.node[162].nic.mac1609_4 	SentPackets 	1
scalar MyScenario.node[162].nic.mac1609_4 	SNIRLostPackets 	22
scalar MyScenario.node[162].nic.mac1609_4 	RXTXLostPackets 	10
scalar MyScenario.node[162].nic.mac1609_4 	TotalLostPackets 	32
scalar MyScenario.node[162].nic.mac1609_4 	DroppedPacketsInMac 	0
scalar MyScenario.node[162].nic.mac1609_4 	TooLittleTime 	0
scalar MyScenario.node[162].nic.mac1609_4 	TimesIntoBackoff 	1
scalar MyScenario.node[162].nic.mac1609_4 	SlotsBackoff 	3
scalar MyScenario.node[162].nic.mac1609_4 	NumInternalContention 	0
scalar MyScenario.node[162].nic.mac1609_4 	totalBusyTime 	0.003945242786
scalar MyScenario.node[162].veinsmobility 	startTime 	1
scalar MyScenario.node[162].veinsmobility 	totalTime 	41
scalar MyScenario.node[162].veinsmobility 	stopTime 	43
scalar MyScenario.node[162].veinsmobility 	minSpeed 	2.2942653491395
scalar MyScenario.node[162].veinsmobility 	maxSpeed 	13.888698398904
scalar MyScenario.node[162].veinsmobility 	totalDistance 	473.72292283502
scalar MyScenario.node[162].veinsmobility 	totalCO2Emission 	135.55844618353
scalar MyScenario.node[180].appl 	generatedWSMs 	0
scalar MyScenario.node[180].appl 	receivedWSMs 	0
scalar MyScenario.node[180].appl 	generatedBSMs 	0
scalar MyScenario.node[180].appl 	receivedBSMs 	0
scalar MyScenario.node[180].appl 	generatedWSAs 	0
scalar MyScenario.node[180].appl 	receivedWSAs 	0
scalar MyScenario.node[180].nic.phy80211p 	busyTime 	0
scalar MyScenario.node[180].nic.mac1609_4 	ReceivedUnicastPackets 	0
scalar MyScenario.node[180].nic.mac1609_4 	ReceivedBroadcasts 	0
scalar MyScenario.node[180].nic.mac1609_4 	SentPackets 	0
scalar MyScenario.node[180].nic.mac1609_4 	SNIRLostPackets 	0
scalar MyScenario.node[180].nic.mac1609_4 	RXTXLostPackets 	0
scalar MyScenario.node[180].nic.mac1609_4 	TotalLostPackets 	0
scalar MyScenario.node[180].nic.mac1609_4 	DroppedPacketsInMac 	0
scalar MyScenario.node[180].nic.mac1609_4 	TooLittleTime 	0
scalar MyScenario.node[180].nic.mac1609_4 	TimesIntoBackoff 	0
scalar MyScenario.node[180].nic.mac1609_4 	SlotsBackoff 	0
scalar MyScenario.node[180].nic.mac1609_4 	NumInternalContention 	0
scalar MyScenario.node[180].nic.mac1609_4 	totalBusyTime 	0
scalar MyScenario.node[180].veinsmobility 	startTime 	1
scalar MyScenario.node[180].veinsmobility 	totalTime 	43
scalar MyScenario.node[180].veinsmobility 	stopTime 	45
scalar MyScenario.node[180].veinsmobility 	minSpeed 	2.318331198371
scalar MyScenario.node[180].veinsmobility 	maxSpeed 	13.871648363187
scalar MyScenario.node[180].veinsmobility 	totalDistance 	454.7514874184
scalar MyScenario.node[180].veinsmobility 	totalCO2Emission 	144.84656502128
scalar MyScenario.node[62].appl 	generatedWSMs 	1
scalar MyScenario.node[62].appl 	receivedWSMs 	1
scalar MyScenario.node[62].appl 	generatedBSMs 	0
scalar MyScenario.node[62].appl 	receivedBSMs 	0
scalar MyScenario.node[62].appl 	generatedWSAs 	0
scalar MyScenario.node[62].appl 	receivedWSAs 	0
scalar MyScenario.node[62].nic.phy80211p 	busyTime 	0.00022672727272727
scalar MyScenario.node[62].nic.mac1609_4 	ReceivedUnicastPackets 	0
scalar MyScenario.node[62].nic.mac1609_4 	ReceivedBroadcasts 	1
scalar MyScenario.node[62].nic.mac1609_4 	SentPackets 	1
scalar MyScenario.node[62].nic.mac1609_4 	SNIRLostPackets 	42
scalar MyScenario.node[62].nic.mac1609_4 	RXTXLostPackets 	26
scalar MyScenario.node[62].nic.mac1609_4 	TotalLostPackets 	68
scalar MyScenario.node[62].nic.mac1609_4 	DroppedPacketsInMac 	0
scalar MyScenario.node[62].nic.mac1609_4 	TooLittleTime 	0
scalar MyScenario.node[62].nic.mac1609_4 	TimesIntoBackoff 	1
scalar MyScenario.node[62].nic.mac1609_4 	SlotsBackoff 	3
scalar MyScenario.node[62].nic.mac1609_4 	NumInternalContention 	0
scalar MyScenario.node[62].nic.mac1609_4 	totalBusyTime 	0.002321291818
scalar MyScenario.node[62].veinsmobility 	startTime 	1
scalar MyScenario.node[62].veinsmobility 	totalTime 	43
scalar MyScenario.node[62].veinsmobility 	stopTime 	45
scalar MyScenario.node[62].veinsmobility 	minSpeed 	0.062085531917921
scalar MyScenario.node[62].veinsmobility 	maxSpeed 	13.855534814345
scalar MyScenario.node[62].veinsmobility 	totalDistance 	368.49158665459
scalar MyScenario.node[62].veinsmobility 	totalCO2Emission 	146.7451856413
scalar MyScenario.node[267].appl 	generatedWSMs 	1
scalar MyScenario.node[267].appl 	receivedWSMs 	2
scalar MyScenario.node[267].appl 	generatedBSMs 	0
scalar MyScenario.node[267].appl 	receivedBSMs 	0
scalar MyScenario.node[267].appl 	generatedWSAs 	0
scalar MyScenario.node[267].appl 	receivedWSAs 	0
scalar MyScenario.node[267].nic.phy80211p 	busyTime 	0.00019333333333333
scalar MyScenario.node[267].nic.mac1609_4 	ReceivedUnicastPackets 	0
scalar MyScenario.node[267].nic.mac1609_4 	ReceivedBroadcasts 	2
scalar MyScenario.node[267].nic.mac1609_4 	SentPackets 	1
scalar MyScenario.node[267].nic.mac1609_4 	SNIRLostPackets 	33
scalar MyScenario.node[267].nic.mac1609_4 	RXTXLostPackets 	12
scalar MyScenario.node[267].nic.mac1609_4 	TotalLostPackets 	45
scalar MyScenario.node[267].nic.mac1609_4 	DroppedPacketsInMac 	0
scalar MyScenario.node[267].nic.mac1609_4 	TooLittleTime 	0
scalar MyScenario.node[267].nic.mac1609_4 	TimesIntoBackoff 	1
scalar MyScenario.node[267].nic.mac1609_4 	SlotsBackoff 	3
scalar MyScenario.node[267].nic.mac1609_4 	NumInternalContention 	0
scalar MyScenario.node[267].nic.mac1609_4 	totalBusyTime 	0.001625167043
scalar MyScenario.node[267].veinsmobility 	startTime 	4
scalar MyScenario.node[267].veinsmobility 	totalTime 	41
scalar MyScenario.node[267].veinsmobility 	stopTime 	46
scalar MyScenario.node[267].veinsmobility 	minSpeed 	2.6472309746213e-11
scalar MyScenario.node[267].veinsmobility 	maxSpeed 	13.58257741658
scalar MyScenario.node[267].veinsmobility 	totalDistance 	276.47450730196
scalar MyScenario.node[267].veinsmobility 	totalCO2Emission 	106.0194786118
scalar MyScenario.node[401].appl 	generatedWSMs 	0
scalar MyScenario.node[401].appl 	receivedWSMs 	0
scalar MyScenario.node[401].appl 	generatedBSMs 	0
scalar MyScenario.node[401].appl 	receivedBSMs 	0
scalar MyScenario.node[401].appl 	generatedWSAs 	0
scalar MyScenario.node[401].appl 	receivedWSAs 	0
scalar MyScenario.node[401].nic.phy80211p 	busyTime 	2.0470588235294e-05
scalar MyScenario.node[401].nic.mac1609_4 	ReceivedUnicastPackets 	0
scalar MyScenario.node[401].nic.mac1609_4 	ReceivedBroadcasts 	0
scalar MyScenario.node[401].nic.mac1609_4 	SentPackets 	0
scalar MyScenario.node[401].nic.mac1609_4 	SNIRLostPackets 	3
scalar MyScenario.node[401].nic.mac1609_4 	RXTXLostPackets 	0
scalar MyScenario.node[401].nic.mac1609_4 	TotalLostPackets 	3
scalar MyScenario.node[401].nic.mac1609_4 	DroppedPacketsInMac 	0
scalar MyScenario.node[401].nic.mac1609_4 	TooLittleTime 	0
scalar MyScenario.node[401].nic.mac1609_4 	TimesIntoBackoff 	0
scalar MyScenario.node[401].nic.mac1609_4 	SlotsBackoff 	0
scalar MyScenario.node[401].nic.mac1609_4 	NumInternalContention 	0
scalar MyScenario.node[401].nic.mac1609_4 	totalBusyTime 	0.000232
scalar MyScenario.node[401].veinsmobility 	startTime 	12
scalar MyScenario.node[401].veinsmobility 	totalTime 	33
scalar MyScenario.node[401].veinsmobility 	stopTime 	46
scalar MyScenario.node[401].veinsmobility 	minSpeed 	0.19297394872529
scalar MyScenario.node[401].veinsmobility 	maxSpeed 	13.89382401316
scalar MyScenario.node[401].veinsmobility 	totalDistance 	346.26705307206
scalar MyScenario.node[401].veinsmobility 	totalCO2Emission 	86.69323062045
scalar MyScenario.node[19].appl 	generatedWSMs 	1
scalar MyScenario.node[19].appl 	receivedWSMs 	1
scalar MyScenario.node[19].appl 	generatedBSMs 	0
scalar MyScenario.node[19].appl 	receivedBSMs 	0
scalar MyScenario.node[19].appl 	generatedWSAs 	0
scalar MyScenario.node[19].appl 	receivedWSAs 	0
scalar MyScenario.node[19].nic.phy80211p 	busyTime 	2.5777777777778e-05
scalar MyScenario.node[19].nic.mac1609_4 	ReceivedUnicastPackets 	0
scalar MyScenario.node[19].nic.mac1609_4 	ReceivedBroadcasts 	1
scalar MyScenario.node[19].nic.mac1609_4 	SentPackets 	1
scalar MyScenario.node[19].nic.mac1609_4 	SNIRLostPackets 	4
scalar MyScenario.node[19].nic.mac1609_4 	RXTXLostPackets 	22
scalar MyScenario.node[19].nic.mac1609_4 	TotalLostPackets 	26
scalar MyScenario.node[19].nic.mac1609_4 	DroppedPacketsInMac 	0
scalar MyScenario.node[19].nic.mac1609_4 	TooLittleTime 	0
scalar MyScenario.node[19].nic.mac1609_4 	TimesIntoBackoff 	1
scalar MyScenario.node[19].nic.mac1609_4 	SlotsBackoff 	0
scalar MyScenario.node[19].nic.mac1609_4 	NumInternalContention 	0
scalar MyScenario.node[19].nic.mac1609_4 	totalBusyTime 	0.000697148271
scalar MyScenario.node[19].veinsmobility 	startTime 	1
scalar MyScenario.node[19].veinsmobility 	totalTime 	44
scalar MyScenario.node[19].veinsmobility 	stopTime 	46
scalar MyScenario.node[19].veinsmobility 	minSpeed 	9.2680236979724e-05
scalar MyScenario.node[19].veinsmobility 	maxSpeed 	13.852682906506
scalar MyScenario.node[19].veinsmobility 	totalDistance 	369.80362977173
scalar MyScenario.node[19].veinsmobility 	totalCO2Emission 	142.4025066553
scalar MyScenario.node[86].appl 	generatedWSMs 	0
scalar MyScenario.node[86].appl 	receivedWSMs 	0
scalar MyScenario.node[86].appl 	generatedBSMs 	0
scalar MyScenario.node[86].appl 	receivedBSMs 	0
scalar MyScenario.node[86].appl 	generatedWSAs 	0
scalar MyScenario.node[86].appl 	receivedWSAs 	0
scalar MyScenario.node[86].nic.phy80211p 	busyTime 	0.00014951111111111
scalar MyScenario.node[86].nic.mac1609_4 	ReceivedUnicastPackets 	0
scalar MyScenario.node[86].nic.mac1609_4 	ReceivedBroadcasts 	0
scalar MyScenario.node[86].nic.mac1609_4 	SentPackets 	0
scalar MyScenario.node[86].nic.mac1609_4 	SNIRLostPackets 	29
scalar MyScenario.node[86].nic.mac1609_4 	RXTXLostPackets 	0
scalar MyScenario.node[86].nic.mac1609_4 	TotalLostPackets 	29
scalar MyScenario.node[86].nic.mac1609_4 	DroppedPacketsInMac 	0
scalar MyScenario.node[86].nic.mac1609_4 	TooLittleTime 	0
scalar MyScenario.node[86].nic.mac1609_4 	TimesIntoBackoff 	0
scalar MyScenario.node[86].nic.mac1609_4 	SlotsBackoff 	0
scalar MyScenario.node[86].nic.mac1609_4 	NumInternalContention 	0
scalar MyScenario.node[86].nic.mac1609_4 	totalBusyTime 	0.000696
scalar MyScenario.node[86].veinsmobility 	startTime 	1
scalar MyScenario.node[86].veinsmobility 	totalTime 	44
scalar MyScenario.node[86].veinsmobility 	stopTime 	46
scalar MyScenario.node[86].veinsmobility 	minSpeed 	2.3314833425218
scalar MyScenario.node[86].veinsmobility 	maxSpeed 	13.877880417835
scalar MyScenario.node[86].veinsmobility 	totalDistance 	478.35351062439
scalar MyScenario.node[86].veinsmobility 	totalCO2Emission 	140.86725616651
scalar MyScenario.node[26].appl 	generatedWSMs 	0
scalar MyScenario.node[26].appl 	receivedWSMs 	0
scalar MyScenario.node[26].appl 	generatedBSMs 	0
scalar MyScenario.node[26].appl 	receivedBSMs 	0
scalar MyScenario.node[26].appl 	generatedWSAs 	0
scalar MyScenario.node[26].appl 	receivedWSAs 	0
scalar MyScenario.node[26].nic.phy80211p 	busyTime 	6.7022222222222e-05
scalar MyScenario.node[26].nic.mac1609_4 	ReceivedUnicastPackets 	0
scalar MyScenario.node[26].nic.mac1609_4 	ReceivedBroadcasts 	0
scalar MyScenario.node[26].nic.mac1609_4 	SentPackets 	0
scalar MyScenario.node[26].nic.mac1609_4 	SNIRLostPackets 	13
scalar MyScenario.node[26].nic.mac1609_4 	RXTXLostPackets 	0
scalar MyScenario.node[26].nic.mac1609_4 	TotalLostPackets 	13
scalar MyScenario.node[26].nic.mac1609_4 	DroppedPacketsInMac 	0
scalar MyScenario.node[26].nic.mac1609_4 	TooLittleTime 	0
scalar MyScenario.node[26].nic.mac1609_4 	TimesIntoBackoff 	0
scalar MyScenario.node[26].nic.mac1609_4 	SlotsBackoff 	0
scalar MyScenario.node[26].nic.mac1609_4 	NumInternalContention 	0
scalar MyScenario.node[26].nic.mac1609_4 	totalBusyTime 	0.000232
scalar MyScenario.node[26].veinsmobility 	startTime 	1
scalar MyScenario.node[26].veinsmobility 	totalTime 	44
scalar MyScenario.node[26].veinsmobility 	stopTime 	46
scalar MyScenario.node[26].veinsmobility 	minSpeed 	5.5625979442604e-07
scalar MyScenario.node[26].veinsmobility 	maxSpeed 	13.79274695199
scalar MyScenario.node[26].veinsmobility 	totalDistance 	370.26516695601
scalar MyScenario.node[26].veinsmobility 	totalCO2Emission 	121.5031340118
scalar MyScenario.node[405].appl 	generatedWSMs 	1
scalar MyScenario.node[405].appl 	receivedWSMs 	8
scalar MyScenario.node[405].appl 	generatedBSMs 	0
scalar MyScenario.node[405].appl 	receivedBSMs 	0
scalar MyScenario.node[405].appl 	generatedWSAs 	0
scalar MyScenario.node[405].appl 	receivedWSAs 	0
scalar MyScenario.node[405].nic.phy80211p 	busyTime 	5.6242424242424e-05
scalar MyScenario.node[405].nic.mac1609_4 	ReceivedUnicastPackets 	0
scalar MyScenario.node[405].nic.mac1609_4 	ReceivedBroadcasts 	8
scalar MyScenario.node[405].nic.mac1609_4 	SentPackets 	1
scalar MyScenario.node[405].nic.mac1609_4 	SNIRLostPackets 	0
scalar MyScenario.node[405].nic.mac1609_4 	RXTXLostPackets 	0
scalar MyScenario.node[405].nic.mac1609_4 	TotalLostPackets 	0
scalar MyScenario.node[405].nic.mac1609_4 	DroppedPacketsInMac 	0
scalar MyScenario.node[405].nic.mac1609_4 	TooLittleTime 	0
scalar MyScenario.node[405].nic.mac1609_4 	TimesIntoBackoff 	1
scalar MyScenario.node[405].nic.mac1609_4 	SlotsBackoff 	3
scalar MyScenario.node[405].nic.mac1609_4 	NumInternalContention 	0
scalar MyScenario.node[405].nic.mac1609_4 	totalBusyTime 	0.002089
scalar MyScenario.node[405].veinsmobility 	startTime 	14
scalar MyScenario.node[405].veinsmobility 	totalTime 	32
scalar MyScenario.node[405].veinsmobility 	stopTime 	47
scalar MyScenario.node[405].veinsmobility 	minSpeed 	2.5649917019997
scalar MyScenario.node[405].veinsmobility 	maxSpeed 	13.816802893602
scalar MyScenario.node[405].veinsmobility 	totalDistance 	377.96794243673
scalar MyScenario.node[405].veinsmobility 	totalCO2Emission 	96.78921536731
scalar MyScenario.node[346].appl 	generatedWSMs 	0
scalar MyScenario.node[346].appl 	receivedWSMs 	0
scalar MyScenario.node[346].appl 	generatedBSMs 	0
scalar MyScenario.node[346].appl 	receivedBSMs 	0
scalar MyScenario.node[346].appl 	generatedWSAs 	0
scalar MyScenario.node[346].appl 	receivedWSAs 	0
scalar MyScenario.node[346].nic.phy80211p 	busyTime 	0
scalar MyScenario.node[346].nic.mac1609_4 	ReceivedUnicastPackets 	0
scalar MyScenario.node[346].nic.mac1609_4 	ReceivedBroadcasts 	0
scalar MyScenario.node[346].nic.mac1609_4 	SentPackets 	0
scalar MyScenario.node[346].nic.mac1609_4 	SNIRLostPackets 	0
scalar MyScenario.node[346].nic.mac1609_4 	RXTXLostPackets 	0
scalar MyScenario.node[346].nic.mac1609_4 	TotalLostPackets 	0
scalar MyScenario.node[346].nic.mac1609_4 	DroppedPacketsInMac 	0
scalar MyScenario.node[346].nic.mac1609_4 	TooLittleTime 	0
scalar MyScenario.node[346].nic.mac1609_4 	TimesIntoBackoff 	0
scalar MyScenario.node[346].nic.mac1609_4 	SlotsBackoff 	0
scalar MyScenario.node[346].nic.mac1609_4 	NumInternalContention 	0
scalar MyScenario.node[346].nic.mac1609_4 	totalBusyTime 	0
scalar MyScenario.node[346].veinsmobility 	startTime 	4
scalar MyScenario.node[346].veinsmobility 	totalTime 	42
scalar MyScenario.node[346].veinsmobility 	stopTime 	47
scalar MyScenario.node[346].veinsmobility 	minSpeed 	0.0090733020054792
scalar MyScenario.node[346].veinsmobility 	maxSpeed 	13.899620197038
scalar MyScenario.node[346].veinsmobility 	totalDistance 	372.16257910796
scalar MyScenario.node[346].veinsmobility 	totalCO2Emission 	122.56534018519
scalar MyScenario.node[106].appl 	generatedWSMs 	0
scalar MyScenario.node[106].appl 	receivedWSMs 	0
scalar MyScenario.node[106].appl 	generatedBSMs 	0
scalar MyScenario.node[106].appl 	receivedBSMs 	0
scalar MyScenario.node[106].appl 	generatedWSAs 	0
scalar MyScenario.node[106].appl 	receivedWSAs 	0
scalar MyScenario.node[106].nic.phy80211p 	busyTime 	0
scalar MyScenario.node[106].nic.mac1609_4 	ReceivedUnicastPackets 	0
scalar MyScenario.node[106].nic.mac1609_4 	ReceivedBroadcasts 	0
scalar MyScenario.node[106].nic.mac1609_4 	SentPackets 	0
scalar MyScenario.node[106].nic.mac1609_4 	SNIRLostPackets 	0
scalar MyScenario.node[106].nic.mac1609_4 	RXTXLostPackets 	0
scalar MyScenario.node[106].nic.mac1609_4 	TotalLostPackets 	0
scalar MyScenario.node[106].nic.mac1609_4 	DroppedPacketsInMac 	0
scalar MyScenario.node[106].nic.mac1609_4 	TooLittleTime 	0
scalar MyScenario.node[106].nic.mac1609_4 	TimesIntoBackoff 	0
scalar MyScenario.node[106].nic.mac1609_4 	SlotsBackoff 	0
scalar MyScenario.node[106].nic.mac1609_4 	NumInternalContention 	0
scalar MyScenario.node[106].nic.mac1609_4 	totalBusyTime 	0
scalar MyScenario.node[106].veinsmobility 	startTime 	1
scalar MyScenario.node[106].veinsmobility 	totalTime 	46
scalar MyScenario.node[106].veinsmobility 	stopTime 	48
scalar MyScenario.node[106].veinsmobility 	minSpeed 	1.4177489547292
scalar MyScenario.node[106].veinsmobility 	maxSpeed 	13.884337646002
scalar MyScenario.node[106].veinsmobility 	totalDistance 	569.0794233464
scalar MyScenario.node[106].veinsmobility 	totalCO2Emission 	119.25125181322
scalar MyScenario.node[37].appl 	generatedWSMs 	1
scalar MyScenario.node[37].appl 	receivedWSMs 	2
scalar MyScenario.node[37].appl 	generatedBSMs 	0
scalar MyScenario.node[37].appl 	receivedBSMs 	0
scalar MyScenario.node[37].appl 	generatedWSAs 	0
scalar MyScenario.node[37].appl 	receivedWSAs 	0
scalar MyScenario.node[37].nic.phy80211p 	busyTime 	8.7e-05
scalar MyScenario.node[37].nic.mac1609_4 	ReceivedUnicastPackets 	0
scalar MyScenario.node[37].nic.mac1609_4 	ReceivedBroadcasts 	2
scalar MyScenario.node[37].nic.mac1609_4 	SentPackets 	1
scalar MyScenario.node[37].nic.mac1609_4 	SNIRLostPackets 	16
scalar MyScenario.node[37].nic.mac1609_4 	RXTXLostPackets 	21
scalar MyScenario.node[37].nic.mac1609_4 	TotalLostPackets 	37
scalar MyScenario.node[37].nic.mac1609_4 	DroppedPacketsInMac 	0
scalar MyScenario.node[37].nic.mac1609_4 	TooLittleTime 	0
scalar MyScenario.node[37].nic.mac1609_4 	TimesIntoBackoff 	1
scalar MyScenario.node[37].nic.mac1609_4 	SlotsBackoff 	2
scalar MyScenario.node[37].nic.mac1609_4 	NumInternalContention 	0
scalar MyScenario.node[37].nic.mac1609_4 	totalBusyTime 	0.001857244352
scalar MyScenario.node[37].veinsmobility 	startTime 	1
scalar MyScenario.node[37].veinsmobility 	totalTime 	47
scalar MyScenario.node[37].veinsmobility 	stopTime 	49
scalar MyScenario.node[37].veinsmobility 	minSpeed 	0.0019573226126813
scalar MyScenario.node[37].veinsmobility 	maxSpeed 	13.888209494995
scalar MyScenario.node[37].veinsmobility 	totalDistance 	467.54448003714
scalar MyScenario.node[37].veinsmobility 	totalCO2Emission 	135.3962639343
scalar MyScenario.node[225].appl 	generatedWSMs 	1
scalar MyScenario.node[225].appl 	receivedWSMs 	16
scalar MyScenario.node[225].appl 	generatedBSMs 	0
scalar MyScenario.node[225].appl 	receivedBSMs 	0
scalar MyScenario.node[225].appl 	generatedWSAs 	0
scalar MyScenario.node[225].appl 	receivedWSAs 	0
scalar MyScenario.node[225].nic.phy80211p 	busyTime 	0.00021266666666667
scalar MyScenario.node[225].nic.mac1609_4 	ReceivedUnicastPackets 	0
scalar MyScenario.node[225].nic.mac1609_4 	ReceivedBroadcasts 	16
scalar MyScenario.node[225].nic.mac1609_4 	SentPackets 	1
scalar MyScenario.node[225].nic.mac1609_4 	SNIRLostPackets 	28
scalar MyScenario.node[225].nic.mac1609_4 	RXTXLostPackets 	9
scalar MyScenario.node[225].nic.mac1609_4 	TotalLostPackets 	37
scalar MyScenario.node[225].nic.mac1609_4 	DroppedPacketsInMac 	0
scalar MyScenario.node[225].nic.mac1609_4 	TooLittleTime 	0
scalar MyScenario.node[225].nic.mac1609_4 	TimesIntoBackoff 	1
scalar MyScenario.node[225].nic.mac1609_4 	SlotsBackoff 	1
scalar MyScenario.node[225].nic.mac1609_4 	NumInternalContention 	0
scalar MyScenario.node[225].nic.mac1609_4 	totalBusyTime 	0.005105156964
scalar MyScenario.node[225].veinsmobility 	startTime 	1
scalar MyScenario.node[225].veinsmobility 	totalTime 	47
scalar MyScenario.node[225].veinsmobility 	stopTime 	49
scalar MyScenario.node[225].veinsmobility 	minSpeed 	2.1272166386141e-05
scalar MyScenario.node[225].veinsmobility 	maxSpeed 	13.760170377744
scalar MyScenario.node[225].veinsmobility 	totalDistance 	384.63009089806
scalar MyScenario.node[225].veinsmobility 	totalCO2Emission 	134.27520249605
scalar MyScenario.node[240].appl 	generatedWSMs 	1
scalar MyScenario.node[240].appl 	receivedWSMs 	14
scalar MyScenario.node[240].appl 	generatedBSMs 	0
scalar MyScenario.node[240].appl 	receivedBSMs 	0
scalar MyScenario.node[240].appl 	generatedWSAs 	0
scalar MyScenario.node[240].appl 	receivedWSAs 	0
scalar MyScenario.node[240].nic.phy80211p 	busyTime 	0.00012373333333333
scalar MyScenario.node[240].nic.mac1609_4 	ReceivedUnicastPackets 	0
scalar MyScenario.node[240].nic.mac1609_4 	ReceivedBroadcasts 	14
[...]
scalar MyScenario.node[302].nic.mac1609_4 	TooLittleTime 	0
scalar MyScenario.node[302].nic.mac1609_4 	TimesIntoBackoff 	1
scalar MyScenario.node[302].nic.mac1609_4 	SlotsBackoff 	1
scalar MyScenario.node[302].nic.mac1609_4 	NumInternalContention 	0
scalar MyScenario.node[302].nic.mac1609_4 	totalBusyTime 	0.002089120097
scalar MyScenario.node[302].veinsmobility 	startTime 	4
scalar MyScenario.node[302].veinsmobility 	totalTime 	179
scalar MyScenario.node[302].veinsmobility 	stopTime 	184
scalar MyScenario.node[302].veinsmobility 	minSpeed 	2.7741520557495e-15
scalar MyScenario.node[302].veinsmobility 	maxSpeed 	13.816850307793
scalar MyScenario.node[302].veinsmobility 	totalDistance 	774.60549293611
scalar MyScenario.node[302].veinsmobility 	totalCO2Emission 	396.52740382379
scalar MyScenario.node[219].appl 	generatedWSMs 	1
scalar MyScenario.node[219].appl 	receivedWSMs 	9
scalar MyScenario.node[219].appl 	generatedBSMs 	0
scalar MyScenario.node[219].appl 	receivedBSMs 	0
scalar MyScenario.node[219].appl 	generatedWSAs 	0
scalar MyScenario.node[219].appl 	receivedWSAs 	0
scalar MyScenario.node[219].nic.phy80211p 	busyTime 	5.8e-05
scalar MyScenario.node[219].nic.mac1609_4 	ReceivedUnicastPackets 	0
scalar MyScenario.node[219].nic.mac1609_4 	ReceivedBroadcasts 	9
scalar MyScenario.node[219].nic.mac1609_4 	SentPackets 	1
scalar MyScenario.node[219].nic.mac1609_4 	SNIRLostPackets 	37
scalar MyScenario.node[219].nic.mac1609_4 	RXTXLostPackets 	21
scalar MyScenario.node[219].nic.mac1609_4 	TotalLostPackets 	58
scalar MyScenario.node[219].nic.mac1609_4 	DroppedPacketsInMac 	0
scalar MyScenario.node[219].nic.mac1609_4 	TooLittleTime 	0
scalar MyScenario.node[219].nic.mac1609_4 	TimesIntoBackoff 	1
scalar MyScenario.node[219].nic.mac1609_4 	SlotsBackoff 	0
scalar MyScenario.node[219].nic.mac1609_4 	NumInternalContention 	0
scalar MyScenario.node[219].nic.mac1609_4 	totalBusyTime 	0.003481037174
scalar MyScenario.node[219].veinsmobility 	startTime 	1
scalar MyScenario.node[219].veinsmobility 	totalTime 	183
scalar MyScenario.node[219].veinsmobility 	stopTime 	185
scalar MyScenario.node[219].veinsmobility 	minSpeed 	1.1178867917409e-07
scalar MyScenario.node[219].veinsmobility 	maxSpeed 	13.89393634249
scalar MyScenario.node[219].veinsmobility 	totalDistance 	1354.8659831099
scalar MyScenario.node[219].veinsmobility 	totalCO2Emission 	464.78224715701
scalar MyScenario.node[108].appl 	generatedWSMs 	1
scalar MyScenario.node[108].appl 	receivedWSMs 	3
scalar MyScenario.node[108].appl 	generatedBSMs 	0
scalar MyScenario.node[108].appl 	receivedBSMs 	0
scalar MyScenario.node[108].appl 	generatedWSAs 	0
scalar MyScenario.node[108].appl 	receivedWSAs 	0
scalar MyScenario.node[108].nic.phy80211p 	busyTime 	7.5243243243243e-05
scalar MyScenario.node[108].nic.mac1609_4 	ReceivedUnicastPackets 	0
scalar MyScenario.node[108].nic.mac1609_4 	ReceivedBroadcasts 	3
scalar MyScenario.node[108].nic.mac1609_4 	SentPackets 	1
scalar MyScenario.node[108].nic.mac1609_4 	SNIRLostPackets 	57
scalar MyScenario.node[108].nic.mac1609_4 	RXTXLostPackets 	16
scalar MyScenario.node[108].nic.mac1609_4 	TotalLostPackets 	73
scalar MyScenario.node[108].nic.mac1609_4 	DroppedPacketsInMac 	0
scalar MyScenario.node[108].nic.mac1609_4 	TooLittleTime 	0
scalar MyScenario.node[108].nic.mac1609_4 	TimesIntoBackoff 	1
scalar MyScenario.node[108].nic.mac1609_4 	SlotsBackoff 	1
scalar MyScenario.node[108].nic.mac1609_4 	NumInternalContention 	0
scalar MyScenario.node[108].nic.mac1609_4 	totalBusyTime 	0.002553278027
scalar MyScenario.node[108].veinsmobility 	startTime 	1
scalar MyScenario.node[108].veinsmobility 	totalTime 	184
scalar MyScenario.node[108].veinsmobility 	stopTime 	186
scalar MyScenario.node[108].veinsmobility 	minSpeed 	0
scalar MyScenario.node[108].veinsmobility 	maxSpeed 	13.884938105592
scalar MyScenario.node[108].veinsmobility 	totalDistance 	866.48045928564
scalar MyScenario.node[108].veinsmobility 	totalCO2Emission 	408.57533837395
scalar MyScenario.node[244].appl 	generatedWSMs 	1
scalar MyScenario.node[244].appl 	receivedWSMs 	3
scalar MyScenario.node[244].appl 	generatedBSMs 	0
scalar MyScenario.node[244].appl 	receivedBSMs 	0
scalar MyScenario.node[244].appl 	generatedWSAs 	0
scalar MyScenario.node[244].appl 	receivedWSAs 	0
scalar MyScenario.node[244].nic.phy80211p 	busyTime 	5.7049180327869e-05
scalar MyScenario.node[244].nic.mac1609_4 	ReceivedUnicastPackets 	0
scalar MyScenario.node[244].nic.mac1609_4 	ReceivedBroadcasts 	3
scalar MyScenario.node[244].nic.mac1609_4 	SentPackets 	1
scalar MyScenario.node[244].nic.mac1609_4 	SNIRLostPackets 	42
scalar MyScenario.node[244].nic.mac1609_4 	RXTXLostPackets 	8
scalar MyScenario.node[244].nic.mac1609_4 	TotalLostPackets 	50
scalar MyScenario.node[244].nic.mac1609_4 	DroppedPacketsInMac 	0
scalar MyScenario.node[244].nic.mac1609_4 	TooLittleTime 	0
scalar MyScenario.node[244].nic.mac1609_4 	TimesIntoBackoff 	1
scalar MyScenario.node[244].nic.mac1609_4 	SlotsBackoff 	3
scalar MyScenario.node[244].nic.mac1609_4 	NumInternalContention 	0
scalar MyScenario.node[244].nic.mac1609_4 	totalBusyTime 	0.002089127509
scalar MyScenario.node[244].veinsmobility 	startTime 	4
scalar MyScenario.node[244].veinsmobility 	totalTime 	182
scalar MyScenario.node[244].veinsmobility 	stopTime 	187
scalar MyScenario.node[244].veinsmobility 	minSpeed 	1.7262329532605e-16
scalar MyScenario.node[244].veinsmobility 	maxSpeed 	13.804568087589
scalar MyScenario.node[244].veinsmobility 	totalDistance 	874.35356363312
scalar MyScenario.node[244].veinsmobility 	totalCO2Emission 	396.85415761766
scalar MyScenario.node[290].appl 	generatedWSMs 	0
scalar MyScenario.node[290].appl 	receivedWSMs 	0
scalar MyScenario.node[290].appl 	generatedBSMs 	0
scalar MyScenario.node[290].appl 	receivedBSMs 	0
scalar MyScenario.node[290].appl 	generatedWSAs 	0
scalar MyScenario.node[290].appl 	receivedWSAs 	0
scalar MyScenario.node[290].nic.phy80211p 	busyTime 	3.8032786885246e-06
scalar MyScenario.node[290].nic.mac1609_4 	ReceivedUnicastPackets 	0
scalar MyScenario.node[290].nic.mac1609_4 	ReceivedBroadcasts 	0
scalar MyScenario.node[290].nic.mac1609_4 	SentPackets 	0
scalar MyScenario.node[290].nic.mac1609_4 	SNIRLostPackets 	3
scalar MyScenario.node[290].nic.mac1609_4 	RXTXLostPackets 	0
scalar MyScenario.node[290].nic.mac1609_4 	TotalLostPackets 	3
scalar MyScenario.node[290].nic.mac1609_4 	DroppedPacketsInMac 	0
scalar MyScenario.node[290].nic.mac1609_4 	TooLittleTime 	0
scalar MyScenario.node[290].nic.mac1609_4 	TimesIntoBackoff 	0
scalar MyScenario.node[290].nic.mac1609_4 	SlotsBackoff 	0
scalar MyScenario.node[290].nic.mac1609_4 	NumInternalContention 	0
scalar MyScenario.node[290].nic.mac1609_4 	totalBusyTime 	0.000464
scalar MyScenario.node[290].veinsmobility 	startTime 	4
scalar MyScenario.node[290].veinsmobility 	totalTime 	182
scalar MyScenario.node[290].veinsmobility 	stopTime 	187
scalar MyScenario.node[290].veinsmobility 	minSpeed 	2.9223148927064e-15
scalar MyScenario.node[290].veinsmobility 	maxSpeed 	13.858965831948
scalar MyScenario.node[290].veinsmobility 	totalDistance 	1475.8329338678
scalar MyScenario.node[290].veinsmobility 	totalCO2Emission 	501.46000207697
scalar MyScenario.node[275].appl 	generatedWSMs 	0
scalar MyScenario.node[275].appl 	receivedWSMs 	0
scalar MyScenario.node[275].appl 	generatedBSMs 	0
scalar MyScenario.node[275].appl 	receivedBSMs 	0
scalar MyScenario.node[275].appl 	generatedWSAs 	0
scalar MyScenario.node[275].appl 	receivedWSAs 	0
scalar MyScenario.node[275].nic.phy80211p 	busyTime 	1.8913043478261e-05
scalar MyScenario.node[275].nic.mac1609_4 	ReceivedUnicastPackets 	0
scalar MyScenario.node[275].nic.mac1609_4 	ReceivedBroadcasts 	0
scalar MyScenario.node[275].nic.mac1609_4 	SentPackets 	0
scalar MyScenario.node[275].nic.mac1609_4 	SNIRLostPackets 	15
scalar MyScenario.node[275].nic.mac1609_4 	RXTXLostPackets 	0
scalar MyScenario.node[275].nic.mac1609_4 	TotalLostPackets 	15
scalar MyScenario.node[275].nic.mac1609_4 	DroppedPacketsInMac 	0
scalar MyScenario.node[275].nic.mac1609_4 	TooLittleTime 	0
scalar MyScenario.node[275].nic.mac1609_4 	TimesIntoBackoff 	0
scalar MyScenario.node[275].nic.mac1609_4 	SlotsBackoff 	0
scalar MyScenario.node[275].nic.mac1609_4 	NumInternalContention 	0
scalar MyScenario.node[275].nic.mac1609_4 	totalBusyTime 	0.000928
scalar MyScenario.node[275].veinsmobility 	startTime 	4
scalar MyScenario.node[275].veinsmobility 	totalTime 	183
scalar MyScenario.node[275].veinsmobility 	stopTime 	188
scalar MyScenario.node[275].veinsmobility 	minSpeed 	2.5437358053603e-15
scalar MyScenario.node[275].veinsmobility 	maxSpeed 	13.88440085554
scalar MyScenario.node[275].veinsmobility 	totalDistance 	1272.5249825819
scalar MyScenario.node[275].veinsmobility 	totalCO2Emission 	478.85487302253
scalar MyScenario.node[213].appl 	generatedWSMs 	1
scalar MyScenario.node[213].appl 	receivedWSMs 	3
scalar MyScenario.node[213].appl 	generatedBSMs 	0
scalar MyScenario.node[213].appl 	receivedBSMs 	0
scalar MyScenario.node[213].appl 	generatedWSAs 	0
scalar MyScenario.node[213].appl 	receivedWSAs 	0
scalar MyScenario.node[213].nic.phy80211p 	busyTime 	6.7157894736842e-05
scalar MyScenario.node[213].nic.mac1609_4 	ReceivedUnicastPackets 	0
scalar MyScenario.node[213].nic.mac1609_4 	ReceivedBroadcasts 	3
scalar MyScenario.node[213].nic.mac1609_4 	SentPackets 	1
scalar MyScenario.node[213].nic.mac1609_4 	SNIRLostPackets 	52
scalar MyScenario.node[213].nic.mac1609_4 	RXTXLostPackets 	16
scalar MyScenario.node[213].nic.mac1609_4 	TotalLostPackets 	68
scalar MyScenario.node[213].nic.mac1609_4 	DroppedPacketsInMac 	0
scalar MyScenario.node[213].nic.mac1609_4 	TooLittleTime 	0
scalar MyScenario.node[213].nic.mac1609_4 	TimesIntoBackoff 	1
scalar MyScenario.node[213].nic.mac1609_4 	SlotsBackoff 	0
scalar MyScenario.node[213].nic.mac1609_4 	NumInternalContention 	0
scalar MyScenario.node[213].nic.mac1609_4 	totalBusyTime 	0.002321232251
scalar MyScenario.node[213].veinsmobility 	startTime 	1
scalar MyScenario.node[213].veinsmobility 	totalTime 	189
scalar MyScenario.node[213].veinsmobility 	stopTime 	191
scalar MyScenario.node[213].veinsmobility 	minSpeed 	0
scalar MyScenario.node[213].veinsmobility 	maxSpeed 	13.885170560377
scalar MyScenario.node[213].veinsmobility 	totalDistance 	880.93882171041
scalar MyScenario.node[213].veinsmobility 	totalCO2Emission 	420.4491576006
scalar MyScenario.node[42].appl 	generatedWSMs 	1
scalar MyScenario.node[42].appl 	receivedWSMs 	7
scalar MyScenario.node[42].appl 	generatedBSMs 	0
scalar MyScenario.node[42].appl 	receivedBSMs 	0
scalar MyScenario.node[42].appl 	generatedWSAs 	0
scalar MyScenario.node[42].appl 	receivedWSAs 	0
scalar MyScenario.node[42].nic.phy80211p 	busyTime 	4.6880829015544e-05
scalar MyScenario.node[42].nic.mac1609_4 	ReceivedUnicastPackets 	0
scalar MyScenario.node[42].nic.mac1609_4 	ReceivedBroadcasts 	7
scalar MyScenario.node[42].nic.mac1609_4 	SentPackets 	1
scalar MyScenario.node[42].nic.mac1609_4 	SNIRLostPackets 	32
scalar MyScenario.node[42].nic.mac1609_4 	RXTXLostPackets 	15
scalar MyScenario.node[42].nic.mac1609_4 	TotalLostPackets 	47
scalar MyScenario.node[42].nic.mac1609_4 	DroppedPacketsInMac 	0
scalar MyScenario.node[42].nic.mac1609_4 	TooLittleTime 	0
scalar MyScenario.node[42].nic.mac1609_4 	TimesIntoBackoff 	1
scalar MyScenario.node[42].nic.mac1609_4 	SlotsBackoff 	3
scalar MyScenario.node[42].nic.mac1609_4 	NumInternalContention 	0
scalar MyScenario.node[42].nic.mac1609_4 	totalBusyTime 	0.003017
scalar MyScenario.node[42].veinsmobility 	startTime 	1
scalar MyScenario.node[42].veinsmobility 	totalTime 	192
scalar MyScenario.node[42].veinsmobility 	stopTime 	194
scalar MyScenario.node[42].veinsmobility 	minSpeed 	8.9796906238412e-05
scalar MyScenario.node[42].veinsmobility 	maxSpeed 	13.87600552782
scalar MyScenario.node[42].veinsmobility 	totalDistance 	1369.06415493
scalar MyScenario.node[42].veinsmobility 	totalCO2Emission 	522.25194131041
scalar MyScenario.node[94].appl 	generatedWSMs 	1
scalar MyScenario.node[94].appl 	receivedWSMs 	3
scalar MyScenario.node[94].appl 	generatedBSMs 	0
scalar MyScenario.node[94].appl 	receivedBSMs 	0
scalar MyScenario.node[94].appl 	generatedWSAs 	0
scalar MyScenario.node[94].appl 	receivedWSAs 	0
scalar MyScenario.node[94].nic.phy80211p 	busyTime 	5.7107692307692e-05
scalar MyScenario.node[94].nic.mac1609_4 	ReceivedUnicastPackets 	0
scalar MyScenario.node[94].nic.mac1609_4 	ReceivedBroadcasts 	3
scalar MyScenario.node[94].nic.mac1609_4 	SentPackets 	1
scalar MyScenario.node[94].nic.mac1609_4 	SNIRLostPackets 	45
scalar MyScenario.node[94].nic.mac1609_4 	RXTXLostPackets 	17
scalar MyScenario.node[94].nic.mac1609_4 	TotalLostPackets 	62
scalar MyScenario.node[94].nic.mac1609_4 	DroppedPacketsInMac 	0
scalar MyScenario.node[94].nic.mac1609_4 	TooLittleTime 	0
scalar MyScenario.node[94].nic.mac1609_4 	TimesIntoBackoff 	1
scalar MyScenario.node[94].nic.mac1609_4 	SlotsBackoff 	3
scalar MyScenario.node[94].nic.mac1609_4 	NumInternalContention 	0
scalar MyScenario.node[94].nic.mac1609_4 	totalBusyTime 	0.002321245671
scalar MyScenario.node[94].veinsmobility 	startTime 	1
scalar MyScenario.node[94].veinsmobility 	totalTime 	194
scalar MyScenario.node[94].veinsmobility 	stopTime 	196
scalar MyScenario.node[94].veinsmobility 	minSpeed 	6.1548624313478e-16
scalar MyScenario.node[94].veinsmobility 	maxSpeed 	13.835616147728
scalar MyScenario.node[94].veinsmobility 	totalDistance 	963.12660913028
scalar MyScenario.node[94].veinsmobility 	totalCO2Emission 	425.07804743787
scalar MyScenario.node[356].appl 	generatedWSMs 	1
scalar MyScenario.node[356].appl 	receivedWSMs 	1
scalar MyScenario.node[356].appl 	generatedBSMs 	0
scalar MyScenario.node[356].appl 	receivedBSMs 	0
scalar MyScenario.node[356].appl 	generatedWSAs 	0
scalar MyScenario.node[356].appl 	receivedWSAs 	0
scalar MyScenario.node[356].nic.phy80211p 	busyTime 	4.5417989417989e-05
scalar MyScenario.node[356].nic.mac1609_4 	ReceivedUnicastPackets 	0
scalar MyScenario.node[356].nic.mac1609_4 	ReceivedBroadcasts 	1
scalar MyScenario.node[356].nic.mac1609_4 	SentPackets 	1
scalar MyScenario.node[356].nic.mac1609_4 	SNIRLostPackets 	36
scalar MyScenario.node[356].nic.mac1609_4 	RXTXLostPackets 	3
scalar MyScenario.node[356].nic.mac1609_4 	TotalLostPackets 	39
scalar MyScenario.node[356].nic.mac1609_4 	DroppedPacketsInMac 	0
scalar MyScenario.node[356].nic.mac1609_4 	TooLittleTime 	0
scalar MyScenario.node[356].nic.mac1609_4 	TimesIntoBackoff 	1
scalar MyScenario.node[356].nic.mac1609_4 	SlotsBackoff 	0
scalar MyScenario.node[356].nic.mac1609_4 	NumInternalContention 	0
scalar MyScenario.node[356].nic.mac1609_4 	totalBusyTime 	0.001625048119
scalar MyScenario.node[356].veinsmobility 	startTime 	7
scalar MyScenario.node[356].veinsmobility 	totalTime 	188
scalar MyScenario.node[356].veinsmobility 	stopTime 	196
scalar MyScenario.node[356].veinsmobility 	minSpeed 	0
scalar MyScenario.node[356].veinsmobility 	maxSpeed 	13.87996146793
scalar MyScenario.node[356].veinsmobility 	totalDistance 	874.11057158272
scalar MyScenario.node[356].veinsmobility 	totalCO2Emission 	398.12014588408
scalar MyScenario.node[322].appl 	generatedWSMs 	1
scalar MyScenario.node[322].appl 	receivedWSMs 	17
scalar MyScenario.node[322].appl 	generatedBSMs 	0
scalar MyScenario.node[322].appl 	receivedBSMs 	0
scalar MyScenario.node[322].appl 	generatedWSAs 	0
scalar MyScenario.node[322].appl 	receivedWSAs 	0
scalar MyScenario.node[322].nic.phy80211p 	busyTime 	7.2281407035176e-05
scalar MyScenario.node[322].nic.mac1609_4 	ReceivedUnicastPackets 	0
scalar MyScenario.node[322].nic.mac1609_4 	ReceivedBroadcasts 	17
scalar MyScenario.node[322].nic.mac1609_4 	SentPackets 	1
scalar MyScenario.node[322].nic.mac1609_4 	SNIRLostPackets 	45
scalar MyScenario.node[322].nic.mac1609_4 	RXTXLostPackets 	15
scalar MyScenario.node[322].nic.mac1609_4 	TotalLostPackets 	60
scalar MyScenario.node[322].nic.mac1609_4 	DroppedPacketsInMac 	0
scalar MyScenario.node[322].nic.mac1609_4 	TooLittleTime 	0
scalar MyScenario.node[322].nic.mac1609_4 	TimesIntoBackoff 	1
scalar MyScenario.node[322].nic.mac1609_4 	SlotsBackoff 	1
scalar MyScenario.node[322].nic.mac1609_4 	NumInternalContention 	0
scalar MyScenario.node[322].nic.mac1609_4 	totalBusyTime 	0.005569336832
scalar MyScenario.node[322].veinsmobility 	startTime 	4
scalar MyScenario.node[322].veinsmobility 	totalTime 	198
scalar MyScenario.node[322].veinsmobility 	stopTime 	203
scalar MyScenario.node[322].veinsmobility 	minSpeed 	1.3053851332386e-08
scalar MyScenario.node[322].veinsmobility 	maxSpeed 	13.881096796691
scalar MyScenario.node[322].veinsmobility 	totalDistance 	1261.817047908
scalar MyScenario.node[322].veinsmobility 	totalCO2Emission 	490.4333824502
scalar MyScenario.node[200].appl 	generatedWSMs 	1
scalar MyScenario.node[200].appl 	receivedWSMs 	3
scalar MyScenario.node[200].appl 	generatedBSMs 	0
scalar MyScenario.node[200].appl 	receivedBSMs 	0
scalar MyScenario.node[200].appl 	generatedWSAs 	0
scalar MyScenario.node[200].appl 	receivedWSAs 	0
scalar MyScenario.node[200].nic.phy80211p 	busyTime 	2.7428571428571e-05
scalar MyScenario.node[200].nic.mac1609_4 	ReceivedUnicastPackets 	0
scalar MyScenario.node[200].nic.mac1609_4 	ReceivedBroadcasts 	3
scalar MyScenario.node[200].nic.mac1609_4 	SentPackets 	1
scalar MyScenario.node[200].nic.mac1609_4 	SNIRLostPackets 	21
scalar MyScenario.node[200].nic.mac1609_4 	RXTXLostPackets 	12
scalar MyScenario.node[200].nic.mac1609_4 	TotalLostPackets 	33
scalar MyScenario.node[200].nic.mac1609_4 	DroppedPacketsInMac 	0
scalar MyScenario.node[200].nic.mac1609_4 	TooLittleTime 	0
scalar MyScenario.node[200].nic.mac1609_4 	TimesIntoBackoff 	1
scalar MyScenario.node[200].nic.mac1609_4 	SlotsBackoff 	1
scalar MyScenario.node[200].nic.mac1609_4 	NumInternalContention 	0
scalar MyScenario.node[200].nic.mac1609_4 	totalBusyTime 	0.001857174071
scalar MyScenario.node[200].veinsmobility 	startTime 	1
scalar MyScenario.node[200].veinsmobility 	totalTime 	202
scalar MyScenario.node[200].veinsmobility 	stopTime 	204
scalar MyScenario.node[200].veinsmobility 	minSpeed 	2.6161589876661e-15
scalar MyScenario.node[200].veinsmobility 	maxSpeed 	13.860710539971
scalar MyScenario.node[200].veinsmobility 	totalDistance 	1078.902341444
scalar MyScenario.node[200].veinsmobility 	totalCO2Emission 	493.00322231493
scalar MyScenario.node[241].appl 	generatedWSMs 	1
scalar MyScenario.node[241].appl 	receivedWSMs 	3
scalar MyScenario.node[241].appl 	generatedBSMs 	0
scalar MyScenario.node[241].appl 	receivedBSMs 	0
scalar MyScenario.node[241].appl 	generatedWSAs 	0
scalar MyScenario.node[241].appl 	receivedWSAs 	0
scalar MyScenario.node[241].nic.phy80211p 	busyTime 	5.452e-05
scalar MyScenario.node[241].nic.mac1609_4 	ReceivedUnicastPackets 	0
scalar MyScenario.node[241].nic.mac1609_4 	ReceivedBroadcasts 	3
scalar MyScenario.node[241].nic.mac1609_4 	SentPackets 	1
scalar MyScenario.node[241].nic.mac1609_4 	SNIRLostPackets 	44
scalar MyScenario.node[241].nic.mac1609_4 	RXTXLostPackets 	17
scalar MyScenario.node[241].nic.mac1609_4 	TotalLostPackets 	61
scalar MyScenario.node[241].nic.mac1609_4 	DroppedPacketsInMac 	0
scalar MyScenario.node[241].nic.mac1609_4 	TooLittleTime 	0
scalar MyScenario.node[241].nic.mac1609_4 	TimesIntoBackoff 	1
scalar MyScenario.node[241].nic.mac1609_4 	SlotsBackoff 	1
scalar MyScenario.node[241].nic.mac1609_4 	NumInternalContention 	0
scalar MyScenario.node[241].nic.mac1609_4 	totalBusyTime 	0.002321222405
scalar MyScenario.node[241].veinsmobility 	startTime 	4
scalar MyScenario.node[241].veinsmobility 	totalTime 	200
scalar MyScenario.node[241].veinsmobility 	stopTime 	204
scalar MyScenario.node[241].veinsmobility 	minSpeed 	6.2249750523052e-16
scalar MyScenario.node[241].veinsmobility 	maxSpeed 	13.885061526927
scalar MyScenario.node[241].veinsmobility 	totalDistance 	1113.0894269955
scalar MyScenario.node[241].veinsmobility 	totalCO2Emission 	443.4404036097
