version 2
run General-21-20170829-17:41:07-8100
attr configname General
attr datetime 20170829-17:41:07
attr density 300
attr experiment General
attr inifile omnetpp.ini
attr iterationvars $density=300
attr iterationvars2 "$density=300, $repetition=1"
attr measurement $density=300
attr network com.liborio.pi.MyScenario
attr processid 8100
attr repetition 1
attr replication #1
attr resultdir results
attr runnumber 21
attr seedset 1
param **.coreDebug false
param **.debug false
param *.**.nic.mac1609_4.bitrate 6Mbps
param *.**.nic.mac1609_4.txPower 20mW
param *.**.nic.mac1609_4.useServiceChannel true
param *.**.nic.phy80211p.analogueModels "xmldoc(\"config.xml\")"
param *.**.nic.phy80211p.antenna "xmldoc(\"antenna.xml\", \"/root/Antenna[@id='monopole']\")"
param *.**.nic.phy80211p.decider "xmldoc(\"config.xml\")"
param *.**.nic.phy80211p.sensitivity -84.39dBm
param *.**.nic.phy80211p.thermalNoise -110dBm
param *.**.nic.phy80211p.usePropagationDelay true
param *.**.nic.phy80211p.useThermalNoise true
param *.annotations.draw true
param *.connectionManager.drawMaxIntfDist false
param *.connectionManager.maxInterfDist 2600m
param *.connectionManager.sendDirect true
param *.manager.autoShutdown true
param *.manager.host "\"localhost\""
param *.manager.launchConfig "xmldoc(string(${density = 100, 200, 300, 400})+\"_\"+ string(${repetition})+\".launchd.xml\")"
param *.manager.port 9999
param *.manager.updateInterval 1s
param *.node[*].appl.beaconInterval 1s
param *.node[*].appl.dataOnSch true
param *.node[*].appl.headerLength "80 bit"
param *.node[*].appl.isSource false
param *.node[*].appl.numMsgs 100
param *.node[*].appl.sendBeacons false
param *.node[*].appl.stopTrafficTime 130s
param *.node[*].appl.wsmInterval 3s
param *.node[*].applType "\"Flooding\""
param *.node[*].veinsmobility.x 0
param *.node[*].veinsmobility.y 0
param *.node[*].veinsmobility.z 1.895
param *.node[*].veinsmobilityType.debug true
param *.node[0].appl.isSource true
param *.playgroundSizeX 2500m
param *.playgroundSizeY 2500m
param *.playgroundSizeZ 50m

scalar . 	density 	300
scalar MyScenario.node[40].appl 	generatedWSMs 	1
scalar MyScenario.node[40].appl 	receivedWSMs 	3
scalar MyScenario.node[40].appl 	generatedBSMs 	0
scalar MyScenario.node[40].appl 	receivedBSMs 	0
scalar MyScenario.node[40].appl 	generatedWSAs 	0
scalar MyScenario.node[40].appl 	receivedWSAs 	0
scalar MyScenario.node[40].nic.phy80211p 	busyTime 	0.0006728
scalar MyScenario.node[40].nic.mac1609_4 	ReceivedUnicastPackets 	0
scalar MyScenario.node[40].nic.mac1609_4 	ReceivedBroadcasts 	3
scalar MyScenario.node[40].nic.mac1609_4 	SentPackets 	1
scalar MyScenario.node[40].nic.mac1609_4 	SNIRLostPackets 	26
scalar MyScenario.node[40].nic.mac1609_4 	RXTXLostPackets 	19
scalar MyScenario.node[40].nic.mac1609_4 	TotalLostPackets 	45
scalar MyScenario.node[40].nic.mac1609_4 	DroppedPacketsInMac 	0
scalar MyScenario.node[40].nic.mac1609_4 	TooLittleTime 	0
scalar MyScenario.node[40].nic.mac1609_4 	TimesIntoBackoff 	1
scalar MyScenario.node[40].nic.mac1609_4 	SlotsBackoff 	3
scalar MyScenario.node[40].nic.mac1609_4 	NumInternalContention 	0
scalar MyScenario.node[40].nic.mac1609_4 	totalBusyTime 	0.001857120794
scalar MyScenario.node[40].veinsmobility 	startTime 	1
scalar MyScenario.node[40].veinsmobility 	totalTime 	9
scalar MyScenario.node[40].veinsmobility 	stopTime 	11
scalar MyScenario.node[40].veinsmobility 	minSpeed 	1.6726314516272
scalar MyScenario.node[40].veinsmobility 	maxSpeed 	13.19526531396
scalar MyScenario.node[40].veinsmobility 	totalDistance 	72.556690397789
scalar MyScenario.node[40].veinsmobility 	totalCO2Emission 	36.052025185451
scalar MyScenario.node[169].appl 	generatedWSMs 	1
scalar MyScenario.node[169].appl 	receivedWSMs 	3
scalar MyScenario.node[169].appl 	generatedBSMs 	0
scalar MyScenario.node[169].appl 	receivedBSMs 	0
scalar MyScenario.node[169].appl 	generatedWSAs 	0
scalar MyScenario.node[169].appl 	receivedWSAs 	0
scalar MyScenario.node[169].nic.phy80211p 	busyTime 	0.0004872
scalar MyScenario.node[169].nic.mac1609_4 	ReceivedUnicastPackets 	0
scalar MyScenario.node[169].nic.mac1609_4 	ReceivedBroadcasts 	3
scalar MyScenario.node[169].nic.mac1609_4 	SentPackets 	1
scalar MyScenario.node[169].nic.mac1609_4 	SNIRLostPackets 	18
scalar MyScenario.node[169].nic.mac1609_4 	RXTXLostPackets 	17
scalar MyScenario.node[169].nic.mac1609_4 	TotalLostPackets 	35
scalar MyScenario.node[169].nic.mac1609_4 	DroppedPacketsInMac 	0
scalar MyScenario.node[169].nic.mac1609_4 	TooLittleTime 	0
scalar MyScenario.node[169].nic.mac1609_4 	TimesIntoBackoff 	1
scalar MyScenario.node[169].nic.mac1609_4 	SlotsBackoff 	0
scalar MyScenario.node[169].nic.mac1609_4 	NumInternalContention 	0
scalar MyScenario.node[169].nic.mac1609_4 	totalBusyTime 	0.00139304909
scalar MyScenario.node[169].veinsmobility 	startTime 	1
scalar MyScenario.node[169].veinsmobility 	totalTime 	9
scalar MyScenario.node[169].veinsmobility 	stopTime 	11
scalar MyScenario.node[169].veinsmobility 	minSpeed 	1.6110171044245
scalar MyScenario.node[169].veinsmobility 	maxSpeed 	13.763759896369
scalar MyScenario.node[169].veinsmobility 	totalDistance 	79.805697005149
scalar MyScenario.node[169].veinsmobility 	totalCO2Emission 	38.966147819542
scalar MyScenario.node[121].appl 	generatedWSMs 	0
scalar MyScenario.node[121].appl 	receivedWSMs 	0
scalar MyScenario.node[121].appl 	generatedBSMs 	0
scalar MyScenario.node[121].appl 	receivedBSMs 	0
scalar MyScenario.node[121].appl 	generatedWSAs 	0
scalar MyScenario.node[121].appl 	receivedWSAs 	0
scalar MyScenario.node[121].nic.phy80211p 	busyTime 	2.32e-05
scalar MyScenario.node[121].nic.mac1609_4 	ReceivedUnicastPackets 	0
scalar MyScenario.node[121].nic.mac1609_4 	ReceivedBroadcasts 	0
scalar MyScenario.node[121].nic.mac1609_4 	SentPackets 	0
scalar MyScenario.node[121].nic.mac1609_4 	SNIRLostPackets 	1
scalar MyScenario.node[121].nic.mac1609_4 	RXTXLostPackets 	0
scalar MyScenario.node[121].nic.mac1609_4 	TotalLostPackets 	1
scalar MyScenario.node[121].nic.mac1609_4 	DroppedPacketsInMac 	0
scalar MyScenario.node[121].nic.mac1609_4 	TooLittleTime 	0
scalar MyScenario.node[121].nic.mac1609_4 	TimesIntoBackoff 	0
scalar MyScenario.node[121].nic.mac1609_4 	SlotsBackoff 	0
scalar MyScenario.node[121].nic.mac1609_4 	NumInternalContention 	0
scalar MyScenario.node[121].nic.mac1609_4 	totalBusyTime 	0.000232
scalar MyScenario.node[121].veinsmobility 	startTime 	1
scalar MyScenario.node[121].veinsmobility 	totalTime 	9
scalar MyScenario.node[121].veinsmobility 	stopTime 	11
scalar MyScenario.node[121].veinsmobility 	minSpeed 	2.5625633104471
scalar MyScenario.node[121].veinsmobility 	maxSpeed 	13.423959105997
scalar MyScenario.node[121].veinsmobility 	totalDistance 	85.807677665305
scalar MyScenario.node[121].veinsmobility 	totalCO2Emission 	37.574237864684
scalar MyScenario.node[148].appl 	generatedWSMs 	0
scalar MyScenario.node[148].appl 	receivedWSMs 	0
scalar MyScenario.node[148].appl 	generatedBSMs 	0
scalar MyScenario.node[148].appl 	receivedBSMs 	0
scalar MyScenario.node[148].appl 	generatedWSAs 	0
scalar MyScenario.node[148].appl 	receivedWSAs 	0
scalar MyScenario.node[148].nic.phy80211p 	busyTime 	0.000116
scalar MyScenario.node[148].nic.mac1609_4 	ReceivedUnicastPackets 	0
scalar MyScenario.node[148].nic.mac1609_4 	ReceivedBroadcasts 	0
scalar MyScenario.node[148].nic.mac1609_4 	SentPackets 	0
scalar MyScenario.node[148].nic.mac1609_4 	SNIRLostPackets 	5
scalar MyScenario.node[148].nic.mac1609_4 	RXTXLostPackets 	0
scalar MyScenario.node[148].nic.mac1609_4 	TotalLostPackets 	5
scalar MyScenario.node[148].nic.mac1609_4 	DroppedPacketsInMac 	0
scalar MyScenario.node[148].nic.mac1609_4 	TooLittleTime 	0
scalar MyScenario.node[148].nic.mac1609_4 	TimesIntoBackoff 	0
scalar MyScenario.node[148].nic.mac1609_4 	SlotsBackoff 	0
scalar MyScenario.node[148].nic.mac1609_4 	NumInternalContention 	0
scalar MyScenario.node[148].nic.mac1609_4 	totalBusyTime 	0.000232
scalar MyScenario.node[148].veinsmobility 	startTime 	1
scalar MyScenario.node[148].veinsmobility 	totalTime 	9
scalar MyScenario.node[148].veinsmobility 	stopTime 	11
scalar MyScenario.node[148].veinsmobility 	minSpeed 	1.374664889602
scalar MyScenario.node[148].veinsmobility 	maxSpeed 	13.729096100689
scalar MyScenario.node[148].veinsmobility 	totalDistance 	79.655248428043
scalar MyScenario.node[148].veinsmobility 	totalCO2Emission 	39.180700506796
scalar MyScenario.node[151].appl 	generatedWSMs 	0
scalar MyScenario.node[151].appl 	receivedWSMs 	0
scalar MyScenario.node[151].appl 	generatedBSMs 	0
scalar MyScenario.node[151].appl 	receivedBSMs 	0
scalar MyScenario.node[151].appl 	generatedWSAs 	0
scalar MyScenario.node[151].appl 	receivedWSAs 	0
scalar MyScenario.node[151].nic.phy80211p 	busyTime 	0
scalar MyScenario.node[151].nic.mac1609_4 	ReceivedUnicastPackets 	0
scalar MyScenario.node[151].nic.mac1609_4 	ReceivedBroadcasts 	0
scalar MyScenario.node[151].nic.mac1609_4 	SentPackets 	0
scalar MyScenario.node[151].nic.mac1609_4 	SNIRLostPackets 	0
scalar MyScenario.node[151].nic.mac1609_4 	RXTXLostPackets 	0
scalar MyScenario.node[151].nic.mac1609_4 	TotalLostPackets 	0
scalar MyScenario.node[151].nic.mac1609_4 	DroppedPacketsInMac 	0
scalar MyScenario.node[151].nic.mac1609_4 	TooLittleTime 	0
scalar MyScenario.node[151].nic.mac1609_4 	TimesIntoBackoff 	0
scalar MyScenario.node[151].nic.mac1609_4 	SlotsBackoff 	0
scalar MyScenario.node[151].nic.mac1609_4 	NumInternalContention 	0
scalar MyScenario.node[151].nic.mac1609_4 	totalBusyTime 	0
scalar MyScenario.node[151].veinsmobility 	startTime 	1
scalar MyScenario.node[151].veinsmobility 	totalTime 	10
scalar MyScenario.node[151].veinsmobility 	stopTime 	12
scalar MyScenario.node[151].veinsmobility 	minSpeed 	2.5464302632725
scalar MyScenario.node[151].veinsmobility 	maxSpeed 	13.893957415666
scalar MyScenario.node[151].veinsmobility 	totalDistance 	93.442404430991
scalar MyScenario.node[151].veinsmobility 	totalCO2Emission 	40.759388723101
scalar MyScenario.node[55].appl 	generatedWSMs 	0
scalar MyScenario.node[55].appl 	receivedWSMs 	0
scalar MyScenario.node[55].appl 	generatedBSMs 	0
scalar MyScenario.node[55].appl 	receivedBSMs 	0
scalar MyScenario.node[55].appl 	generatedWSAs 	0
scalar MyScenario.node[55].appl 	receivedWSAs 	0
scalar MyScenario.node[55].nic.phy80211p 	busyTime 	0
scalar MyScenario.node[55].nic.mac1609_4 	ReceivedUnicastPackets 	0
scalar MyScenario.node[55].nic.mac1609_4 	ReceivedBroadcasts 	0
scalar MyScenario.node[55].nic.mac1609_4 	SentPackets 	0
scalar MyScenario.node[55].nic.mac1609_4 	SNIRLostPackets 	0
scalar MyScenario.node[55].nic.mac1609_4 	RXTXLostPackets 	0
scalar MyScenario.node[55].nic.mac1609_4 	TotalLostPackets 	0
scalar MyScenario.node[55].nic.mac1609_4 	DroppedPacketsInMac 	0
scalar MyScenario.node[55].nic.mac1609_4 	TooLittleTime 	0
scalar MyScenario.node[55].nic.mac1609_4 	TimesIntoBackoff 	0
scalar MyScenario.node[55].nic.mac1609_4 	SlotsBackoff 	0
scalar MyScenario.node[55].nic.mac1609_4 	NumInternalContention 	0
scalar MyScenario.node[55].nic.mac1609_4 	totalBusyTime 	0
scalar MyScenario.node[55].veinsmobility 	startTime 	1
scalar MyScenario.node[55].veinsmobility 	totalTime 	10
scalar MyScenario.node[55].veinsmobility 	stopTime 	12
scalar MyScenario.node[55].veinsmobility 	minSpeed 	2.1144225720782
scalar MyScenario.node[55].veinsmobility 	maxSpeed 	13.818370329612
scalar MyScenario.node[55].veinsmobility 	totalDistance 	93.668798555397
scalar MyScenario.node[55].veinsmobility 	totalCO2Emission 	41.165511689423
scalar MyScenario.node[204].appl 	generatedWSMs 	0
scalar MyScenario.node[204].appl 	receivedWSMs 	0
scalar MyScenario.node[204].appl 	generatedBSMs 	0
scalar MyScenario.node[204].appl 	receivedBSMs 	0
scalar MyScenario.node[204].appl 	generatedWSAs 	0
scalar MyScenario.node[204].appl 	receivedWSAs 	0
scalar MyScenario.node[204].nic.phy80211p 	busyTime 	0.00012654545454545
scalar MyScenario.node[204].nic.mac1609_4 	ReceivedUnicastPackets 	0
scalar MyScenario.node[204].nic.mac1609_4 	ReceivedBroadcasts 	0
scalar MyScenario.node[204].nic.mac1609_4 	SentPackets 	0
scalar MyScenario.node[204].nic.mac1609_4 	SNIRLostPackets 	6
scalar MyScenario.node[204].nic.mac1609_4 	RXTXLostPackets 	0
scalar MyScenario.node[204].nic.mac1609_4 	TotalLostPackets 	6
scalar MyScenario.node[204].nic.mac1609_4 	DroppedPacketsInMac 	0
scalar MyScenario.node[204].nic.mac1609_4 	TooLittleTime 	0
scalar MyScenario.node[204].nic.mac1609_4 	TimesIntoBackoff 	0
scalar MyScenario.node[204].nic.mac1609_4 	SlotsBackoff 	0
scalar MyScenario.node[204].nic.mac1609_4 	NumInternalContention 	0
scalar MyScenario.node[204].nic.mac1609_4 	totalBusyTime 	0.000232
scalar MyScenario.node[204].veinsmobility 	startTime 	1
scalar MyScenario.node[204].veinsmobility 	totalTime 	10
scalar MyScenario.node[204].veinsmobility 	stopTime 	12
scalar MyScenario.node[204].veinsmobility 	minSpeed 	2.0989626194816
scalar MyScenario.node[204].veinsmobility 	maxSpeed 	13.853419899521
scalar MyScenario.node[204].veinsmobility 	totalDistance 	89.323978496722
scalar MyScenario.node[204].veinsmobility 	totalCO2Emission 	39.360543029428
scalar MyScenario.node[164].appl 	generatedWSMs 	1
scalar MyScenario.node[164].appl 	receivedWSMs 	4
scalar MyScenario.node[164].appl 	generatedBSMs 	0
scalar MyScenario.node[164].appl 	receivedBSMs 	0
scalar MyScenario.node[164].appl 	generatedWSAs 	0
scalar MyScenario.node[164].appl 	receivedWSAs 	0
scalar MyScenario.node[164].nic.phy80211p 	busyTime 	0.00036088888888889
scalar MyScenario.node[164].nic.mac1609_4 	ReceivedUnicastPackets 	0
scalar MyScenario.node[164].nic.mac1609_4 	ReceivedBroadcasts 	4
scalar MyScenario.node[164].nic.mac1609_4 	SentPackets 	1
scalar MyScenario.node[164].nic.mac1609_4 	SNIRLostPackets 	24
scalar MyScenario.node[164].nic.mac1609_4 	RXTXLostPackets 	8
scalar MyScenario.node[164].nic.mac1609_4 	TotalLostPackets 	32
scalar MyScenario.node[164].nic.mac1609_4 	DroppedPacketsInMac 	0
scalar MyScenario.node[164].nic.mac1609_4 	TooLittleTime 	0
scalar MyScenario.node[164].nic.mac1609_4 	TimesIntoBackoff 	1
scalar MyScenario.node[164].nic.mac1609_4 	SlotsBackoff 	2
scalar MyScenario.node[164].nic.mac1609_4 	NumInternalContention 	0
scalar MyScenario.node[164].nic.mac1609_4 	totalBusyTime 	0.002089
scalar MyScenario.node[164].veinsmobility 	startTime 	1
scalar MyScenario.node[164].veinsmobility 	totalTime 	17
scalar MyScenario.node[164].veinsmobility 	stopTime 	19
scalar MyScenario.node[164].veinsmobility 	minSpeed 	2.0821783869062
scalar MyScenario.node[164].veinsmobility 	maxSpeed 	13.695466301404
scalar MyScenario.node[164].veinsmobility 	totalDistance 	184.15153270832
scalar MyScenario.node[164].veinsmobility 	totalCO2Emission 	53.946624362874
scalar MyScenario.node[111].appl 	generatedWSMs 	1
scalar MyScenario.node[111].appl 	receivedWSMs 	2
scalar MyScenario.node[111].appl 	generatedBSMs 	0
scalar MyScenario.node[111].appl 	receivedBSMs 	0
scalar MyScenario.node[111].appl 	generatedWSAs 	0
scalar MyScenario.node[111].appl 	receivedWSAs 	0
scalar MyScenario.node[111].nic.phy80211p 	busyTime 	0.00018044444444444
scalar MyScenario.node[111].nic.mac1609_4 	ReceivedUnicastPackets 	0
scalar MyScenario.node[111].nic.mac1609_4 	ReceivedBroadcasts 	2
scalar MyScenario.node[111].nic.mac1609_4 	SentPackets 	1
scalar MyScenario.node[111].nic.mac1609_4 	SNIRLostPackets 	12
scalar MyScenario.node[111].nic.mac1609_4 	RXTXLostPackets 	10
scalar MyScenario.node[111].nic.mac1609_4 	TotalLostPackets 	22
scalar MyScenario.node[111].nic.mac1609_4 	DroppedPacketsInMac 	0
scalar MyScenario.node[111].nic.mac1609_4 	TooLittleTime 	0
scalar MyScenario.node[111].nic.mac1609_4 	TimesIntoBackoff 	1
scalar MyScenario.node[111].nic.mac1609_4 	SlotsBackoff 	0
scalar MyScenario.node[111].nic.mac1609_4 	NumInternalContention 	0
scalar MyScenario.node[111].nic.mac1609_4 	totalBusyTime 	0.001393
scalar MyScenario.node[111].veinsmobility 	startTime 	1
scalar MyScenario.node[111].veinsmobility 	totalTime 	17
scalar MyScenario.node[111].veinsmobility 	stopTime 	19
scalar MyScenario.node[111].veinsmobility 	minSpeed 	1.9629581085173
scalar MyScenario.node[111].veinsmobility 	maxSpeed 	13.819317112747
scalar MyScenario.node[111].veinsmobility 	totalDistance 	183.17041206922
scalar MyScenario.node[111].veinsmobility 	totalCO2Emission 	59.261683784803
scalar MyScenario.node[98].appl 	generatedWSMs 	0
scalar MyScenario.node[98].appl 	receivedWSMs 	0
scalar MyScenario.node[98].appl 	generatedBSMs 	0
scalar MyScenario.node[98].appl 	receivedBSMs 	0
scalar MyScenario.node[98].appl 	generatedWSAs 	0
scalar MyScenario.node[98].appl 	receivedWSAs 	0
scalar MyScenario.node[98].nic.phy80211p 	busyTime 	5.568e-05
scalar MyScenario.node[98].nic.mac1609_4 	ReceivedUnicastPackets 	0
scalar MyScenario.node[98].nic.mac1609_4 	ReceivedBroadcasts 	0
scalar MyScenario.node[98].nic.mac1609_4 	SentPackets 	0
scalar MyScenario.node[98].nic.mac1609_4 	SNIRLostPackets 	6
scalar MyScenario.node[98].nic.mac1609_4 	RXTXLostPackets 	0
scalar MyScenario.node[98].nic.mac1609_4 	TotalLostPackets 	6
scalar MyScenario.node[98].nic.mac1609_4 	DroppedPacketsInMac 	0
scalar MyScenario.node[98].nic.mac1609_4 	TooLittleTime 	0
scalar MyScenario.node[98].nic.mac1609_4 	TimesIntoBackoff 	0
scalar MyScenario.node[98].nic.mac1609_4 	SlotsBackoff 	0
scalar MyScenario.node[98].nic.mac1609_4 	NumInternalContention 	0
scalar MyScenario.node[98].nic.mac1609_4 	totalBusyTime 	0.000464
scalar MyScenario.node[98].veinsmobility 	startTime 	1
scalar MyScenario.node[98].veinsmobility 	totalTime 	24
scalar MyScenario.node[98].veinsmobility 	stopTime 	26
scalar MyScenario.node[98].veinsmobility 	minSpeed 	2.5366576599656
scalar MyScenario.node[98].veinsmobility 	maxSpeed 	13.887687333231
scalar MyScenario.node[98].veinsmobility 	totalDistance 	284.59859418226
scalar MyScenario.node[98].veinsmobility 	totalCO2Emission 	76.095303036194
scalar MyScenario.node[71].appl 	generatedWSMs 	0
scalar MyScenario.node[71].appl 	receivedWSMs 	0
scalar MyScenario.node[71].appl 	generatedBSMs 	0
scalar MyScenario.node[71].appl 	receivedBSMs 	0
scalar MyScenario.node[71].appl 	generatedWSAs 	0
scalar MyScenario.node[71].appl 	receivedWSAs 	0
scalar MyScenario.node[71].nic.phy80211p 	busyTime 	0
scalar MyScenario.node[71].nic.mac1609_4 	ReceivedUnicastPackets 	0
scalar MyScenario.node[71].nic.mac1609_4 	ReceivedBroadcasts 	0
scalar MyScenario.node[71].nic.mac1609_4 	SentPackets 	0
scalar MyScenario.node[71].nic.mac1609_4 	SNIRLostPackets 	0
scalar MyScenario.node[71].nic.mac1609_4 	RXTXLostPackets 	0
scalar MyScenario.node[71].nic.mac1609_4 	TotalLostPackets 	0
scalar MyScenario.node[71].nic.mac1609_4 	DroppedPacketsInMac 	0
scalar MyScenario.node[71].nic.mac1609_4 	TooLittleTime 	0
scalar MyScenario.node[71].nic.mac1609_4 	TimesIntoBackoff 	0
scalar MyScenario.node[71].nic.mac1609_4 	SlotsBackoff 	0
scalar MyScenario.node[71].nic.mac1609_4 	NumInternalContention 	0
scalar MyScenario.node[71].nic.mac1609_4 	totalBusyTime 	0
scalar MyScenario.node[71].veinsmobility 	startTime 	1
scalar MyScenario.node[71].veinsmobility 	totalTime 	24
scalar MyScenario.node[71].veinsmobility 	stopTime 	26
scalar MyScenario.node[71].veinsmobility 	minSpeed 	1.9196449656039
scalar MyScenario.node[71].veinsmobility 	maxSpeed 	13.84104936854
scalar MyScenario.node[71].veinsmobility 	totalDistance 	278.29130802227
scalar MyScenario.node[71].veinsmobility 	totalCO2Emission 	71.322498342118
scalar MyScenario.node[154].appl 	generatedWSMs 	1
scalar MyScenario.node[154].appl 	receivedWSMs 	1
scalar MyScenario.node[154].appl 	generatedBSMs 	0
scalar MyScenario.node[154].appl 	receivedBSMs 	0
scalar MyScenario.node[154].appl 	generatedWSAs 	0
scalar MyScenario.node[154].appl 	receivedWSAs 	0
scalar MyScenario.node[154].nic.phy80211p 	busyTime 	5.8e-05
scalar MyScenario.node[154].nic.mac1609_4 	ReceivedUnicastPackets 	0
scalar MyScenario.node[154].nic.mac1609_4 	ReceivedBroadcasts 	1
scalar MyScenario.node[154].nic.mac1609_4 	SentPackets 	1
scalar MyScenario.node[154].nic.mac1609_4 	SNIRLostPackets 	6
scalar MyScenario.node[154].nic.mac1609_4 	RXTXLostPackets 	10
scalar MyScenario.node[154].nic.mac1609_4 	TotalLostPackets 	16
scalar MyScenario.node[154].nic.mac1609_4 	DroppedPacketsInMac 	0
scalar MyScenario.node[154].nic.mac1609_4 	TooLittleTime 	0
scalar MyScenario.node[154].nic.mac1609_4 	TimesIntoBackoff 	1
scalar MyScenario.node[154].nic.mac1609_4 	SlotsBackoff 	3
scalar MyScenario.node[154].nic.mac1609_4 	NumInternalContention 	0
scalar MyScenario.node[154].nic.mac1609_4 	totalBusyTime 	0.001161134966
scalar MyScenario.node[154].veinsmobility 	startTime 	1
scalar MyScenario.node[154].veinsmobility 	totalTime 	27
scalar MyScenario.node[154].veinsmobility 	stopTime 	29
scalar MyScenario.node[154].veinsmobility 	minSpeed 	1.8324049122632
scalar MyScenario.node[154].veinsmobility 	maxSpeed 	13.767972835572
scalar MyScenario.node[154].veinsmobility 	totalDistance 	267.68389919677
scalar MyScenario.node[154].veinsmobility 	totalCO2Emission 	90.633300399865
scalar MyScenario.node[35].appl 	generatedWSMs 	0
scalar MyScenario.node[35].appl 	receivedWSMs 	0
scalar MyScenario.node[35].appl 	generatedBSMs 	0
scalar MyScenario.node[35].appl 	receivedBSMs 	0
scalar MyScenario.node[35].appl 	generatedWSAs 	0
scalar MyScenario.node[35].appl 	receivedWSAs 	0
scalar MyScenario.node[35].nic.phy80211p 	busyTime 	0
scalar MyScenario.node[35].nic.mac1609_4 	ReceivedUnicastPackets 	0
scalar MyScenario.node[35].nic.mac1609_4 	ReceivedBroadcasts 	0
scalar MyScenario.node[35].nic.mac1609_4 	SentPackets 	0
scalar MyScenario.node[35].nic.mac1609_4 	SNIRLostPackets 	0
scalar MyScenario.node[35].nic.mac1609_4 	RXTXLostPackets 	0
scalar MyScenario.node[35].nic.mac1609_4 	TotalLostPackets 	0
scalar MyScenario.node[35].nic.mac1609_4 	DroppedPacketsInMac 	0
scalar MyScenario.node[35].nic.mac1609_4 	TooLittleTime 	0
scalar MyScenario.node[35].nic.mac1609_4 	TimesIntoBackoff 	0
scalar MyScenario.node[35].nic.mac1609_4 	SlotsBackoff 	0
scalar MyScenario.node[35].nic.mac1609_4 	NumInternalContention 	0
scalar MyScenario.node[35].nic.mac1609_4 	totalBusyTime 	0
scalar MyScenario.node[35].veinsmobility 	startTime 	1
scalar MyScenario.node[35].veinsmobility 	totalTime 	32
scalar MyScenario.node[35].veinsmobility 	stopTime 	34
scalar MyScenario.node[35].veinsmobility 	minSpeed 	1.7219898939133
scalar MyScenario.node[35].veinsmobility 	maxSpeed 	13.867629533471
scalar MyScenario.node[35].veinsmobility 	totalDistance 	363.4934609152
scalar MyScenario.node[35].veinsmobility 	totalCO2Emission 	109.02700456141
scalar MyScenario.node[200].appl 	generatedWSMs 	1
scalar MyScenario.node[200].appl 	receivedWSMs 	6
scalar MyScenario.node[200].appl 	generatedBSMs 	0
scalar MyScenario.node[200].appl 	receivedBSMs 	0
scalar MyScenario.node[200].appl 	generatedWSAs 	0
scalar MyScenario.node[200].appl 	receivedWSAs 	0
scalar MyScenario.node[200].nic.phy80211p 	busyTime 	0.00019684848484848
scalar MyScenario.node[200].nic.mac1609_4 	ReceivedUnicastPackets 	0
scalar MyScenario.node[200].nic.mac1609_4 	ReceivedBroadcasts 	6
scalar MyScenario.node[200].nic.mac1609_4 	SentPackets 	1
scalar MyScenario.node[200].nic.mac1609_4 	SNIRLostPackets 	22
scalar MyScenario.node[200].nic.mac1609_4 	RXTXLostPackets 	12
scalar MyScenario.node[200].nic.mac1609_4 	TotalLostPackets 	34
scalar MyScenario.node[200].nic.mac1609_4 	DroppedPacketsInMac 	0
scalar MyScenario.node[200].nic.mac1609_4 	TooLittleTime 	0
scalar MyScenario.node[200].nic.mac1609_4 	TimesIntoBackoff 	1
scalar MyScenario.node[200].nic.mac1609_4 	SlotsBackoff 	0
scalar MyScenario.node[200].nic.mac1609_4 	NumInternalContention 	0
scalar MyScenario.node[200].nic.mac1609_4 	totalBusyTime 	0.003481165536
scalar MyScenario.node[200].veinsmobility 	startTime 	1
scalar MyScenario.node[200].veinsmobility 	totalTime 	32
scalar MyScenario.node[200].veinsmobility 	stopTime 	34
scalar MyScenario.node[200].veinsmobility 	minSpeed 	1.7514171056449
scalar MyScenario.node[200].veinsmobility 	maxSpeed 	13.752758683823
scalar MyScenario.node[200].veinsmobility 	totalDistance 	380.41113432674
scalar MyScenario.node[200].veinsmobility 	totalCO2Emission 	91.402458442259
scalar MyScenario.node[150].appl 	generatedWSMs 	1
scalar MyScenario.node[150].appl 	receivedWSMs 	3
scalar MyScenario.node[150].appl 	generatedBSMs 	0
scalar MyScenario.node[150].appl 	receivedBSMs 	0
scalar MyScenario.node[150].appl 	generatedWSAs 	0
scalar MyScenario.node[150].appl 	receivedWSAs 	0
scalar MyScenario.node[150].nic.phy80211p 	busyTime 	0.00014763636363636
scalar MyScenario.node[150].nic.mac1609_4 	ReceivedUnicastPackets 	0
scalar MyScenario.node[150].nic.mac1609_4 	ReceivedBroadcasts 	3
scalar MyScenario.node[150].nic.mac1609_4 	SentPackets 	1
scalar MyScenario.node[150].nic.mac1609_4 	SNIRLostPackets 	18
scalar MyScenario.node[150].nic.mac1609_4 	RXTXLostPackets 	11
scalar MyScenario.node[150].nic.mac1609_4 	TotalLostPackets 	29
scalar MyScenario.node[150].nic.mac1609_4 	DroppedPacketsInMac 	0
scalar MyScenario.node[150].nic.mac1609_4 	TooLittleTime 	0
scalar MyScenario.node[150].nic.mac1609_4 	TimesIntoBackoff 	1
scalar MyScenario.node[150].nic.mac1609_4 	SlotsBackoff 	0
scalar MyScenario.node[150].nic.mac1609_4 	NumInternalContention 	0
scalar MyScenario.node[150].nic.mac1609_4 	totalBusyTime 	0.002321
scalar MyScenario.node[150].veinsmobility 	startTime 	1
scalar MyScenario.node[150].veinsmobility 	totalTime 	32
scalar MyScenario.node[150].veinsmobility 	stopTime 	34
scalar MyScenario.node[150].veinsmobility 	minSpeed 	2.1994512931444
scalar MyScenario.node[150].veinsmobility 	maxSpeed 	13.887275096006
scalar MyScenario.node[150].veinsmobility 	totalDistance 	364.78459584969
scalar MyScenario.node[150].veinsmobility 	totalCO2Emission 	100.52810875581
scalar MyScenario.node[59].appl 	generatedWSMs 	0
scalar MyScenario.node[59].appl 	receivedWSMs 	0
scalar MyScenario.node[59].appl 	generatedBSMs 	0
scalar MyScenario.node[59].appl 	receivedBSMs 	0
scalar MyScenario.node[59].appl 	generatedWSAs 	0
scalar MyScenario.node[59].appl 	receivedWSAs 	0
scalar MyScenario.node[59].nic.phy80211p 	busyTime 	0
scalar MyScenario.node[59].nic.mac1609_4 	ReceivedUnicastPackets 	0
scalar MyScenario.node[59].nic.mac1609_4 	ReceivedBroadcasts 	0
scalar MyScenario.node[59].nic.mac1609_4 	SentPackets 	0
scalar MyScenario.node[59].nic.mac1609_4 	SNIRLostPackets 	0
scalar MyScenario.node[59].nic.mac1609_4 	RXTXLostPackets 	0
scalar MyScenario.node[59].nic.mac1609_4 	TotalLostPackets 	0
scalar MyScenario.node[59].nic.mac1609_4 	DroppedPacketsInMac 	0
scalar MyScenario.node[59].nic.mac1609_4 	TooLittleTime 	0
scalar MyScenario.node[59].nic.mac1609_4 	TimesIntoBackoff 	0
scalar MyScenario.node[59].nic.mac1609_4 	SlotsBackoff 	0
scalar MyScenario.node[59].nic.mac1609_4 	NumInternalContention 	0
scalar MyScenario.node[59].nic.mac1609_4 	totalBusyTime 	0
scalar MyScenario.node[59].veinsmobility 	startTime 	1
scalar MyScenario.node[59].veinsmobility 	totalTime 	33
scalar MyScenario.node[59].veinsmobility 	stopTime 	35
scalar MyScenario.node[59].veinsmobility 	minSpeed 	2.4409093532944
scalar MyScenario.node[59].veinsmobility 	maxSpeed 	13.868374337442
scalar MyScenario.node[59].veinsmobility 	totalDistance 	363.61156672263
scalar MyScenario.node[59].veinsmobility 	totalCO2Emission 	115.95834013452
scalar MyScenario.node[16].appl 	generatedWSMs 	0
scalar MyScenario.node[16].appl 	receivedWSMs 	0
scalar MyScenario.node[16].appl 	generatedBSMs 	0
scalar MyScenario.node[16].appl 	receivedBSMs 	0
scalar MyScenario.node[16].appl 	generatedWSAs 	0
scalar MyScenario.node[16].appl 	receivedWSAs 	0
scalar MyScenario.node[16].nic.phy80211p 	busyTime 	0
scalar MyScenario.node[16].nic.mac1609_4 	ReceivedUnicastPackets 	0
scalar MyScenario.node[16].nic.mac1609_4 	ReceivedBroadcasts 	0
scalar MyScenario.node[16].nic.mac1609_4 	SentPackets 	0
scalar MyScenario.node[16].nic.mac1609_4 	SNIRLostPackets 	0
scalar MyScenario.node[16].nic.mac1609_4 	RXTXLostPackets 	0
scalar MyScenario.node[16].nic.mac1609_4 	TotalLostPackets 	0
scalar MyScenario.node[16].nic.mac1609_4 	DroppedPacketsInMac 	0
scalar MyScenario.node[16].nic.mac1609_4 	TooLittleTime 	0
scalar MyScenario.node[16].nic.mac1609_4 	TimesIntoBackoff 	0
scalar MyScenario.node[16].nic.mac1609_4 	SlotsBackoff 	0
scalar MyScenario.node[16].nic.mac1609_4 	NumInternalContention 	0
scalar MyScenario.node[16].nic.mac1609_4 	totalBusyTime 	0
scalar MyScenario.node[16].veinsmobility 	startTime 	1
scalar MyScenario.node[16].veinsmobility 	totalTime 	33
scalar MyScenario.node[16].veinsmobility 	stopTime 	35
scalar MyScenario.node[16].veinsmobility 	minSpeed 	2.0722862849943
scalar MyScenario.node[16].veinsmobility 	maxSpeed 	13.87252038531
scalar MyScenario.node[16].veinsmobility 	totalDistance 	372.49599177766
scalar MyScenario.node[16].veinsmobility 	totalCO2Emission 	102.85837519104
scalar MyScenario.node[106].appl 	generatedWSMs 	0
scalar MyScenario.node[106].appl 	receivedWSMs 	0
scalar MyScenario.node[106].appl 	generatedBSMs 	0
scalar MyScenario.node[106].appl 	receivedBSMs 	0
scalar MyScenario.node[106].appl 	generatedWSAs 	0
scalar MyScenario.node[106].appl 	receivedWSAs 	0
scalar MyScenario.node[106].nic.phy80211p 	busyTime 	0.00011931428571429
scalar MyScenario.node[106].nic.mac1609_4 	ReceivedUnicastPackets 	0
scalar MyScenario.node[106].nic.mac1609_4 	ReceivedBroadcasts 	0
scalar MyScenario.node[106].nic.mac1609_4 	SentPackets 	0
scalar MyScenario.node[106].nic.mac1609_4 	SNIRLostPackets 	18
scalar MyScenario.node[106].nic.mac1609_4 	RXTXLostPackets 	0
scalar MyScenario.node[106].nic.mac1609_4 	TotalLostPackets 	18
scalar MyScenario.node[106].nic.mac1609_4 	DroppedPacketsInMac 	0
scalar MyScenario.node[106].nic.mac1609_4 	TooLittleTime 	0
scalar MyScenario.node[106].nic.mac1609_4 	TimesIntoBackoff 	0
scalar MyScenario.node[106].nic.mac1609_4 	SlotsBackoff 	0
scalar MyScenario.node[106].nic.mac1609_4 	NumInternalContention 	0
scalar MyScenario.node[106].nic.mac1609_4 	totalBusyTime 	0.000928
scalar MyScenario.node[106].veinsmobility 	startTime 	1
scalar MyScenario.node[106].veinsmobility 	totalTime 	34
scalar MyScenario.node[106].veinsmobility 	stopTime 	36
scalar MyScenario.node[106].veinsmobility 	minSpeed 	0.00031198232510404
scalar MyScenario.node[106].veinsmobility 	maxSpeed 	13.836105122766
scalar MyScenario.node[106].veinsmobility 	totalDistance 	273.4031398456
scalar MyScenario.node[106].veinsmobility 	totalCO2Emission 	99.271436457987
scalar MyScenario.node[73].appl 	generatedWSMs 	1
scalar MyScenario.node[73].appl 	receivedWSMs 	8
scalar MyScenario.node[73].appl 	generatedBSMs 	0
scalar MyScenario.node[73].appl 	receivedBSMs 	0
scalar MyScenario.node[73].appl 	generatedWSAs 	0
scalar MyScenario.node[73].appl 	receivedWSAs 	0
scalar MyScenario.node[73].nic.phy80211p 	busyTime 	0.000174
scalar MyScenario.node[73].nic.mac1609_4 	ReceivedUnicastPackets 	0
scalar MyScenario.node[73].nic.mac1609_4 	ReceivedBroadcasts 	8
scalar MyScenario.node[73].nic.mac1609_4 	SentPackets 	1
scalar MyScenario.node[73].nic.mac1609_4 	SNIRLostPackets 	19
scalar MyScenario.node[73].nic.mac1609_4 	RXTXLostPackets 	10
scalar MyScenario.node[73].nic.mac1609_4 	TotalLostPackets 	29
scalar MyScenario.node[73].nic.mac1609_4 	DroppedPacketsInMac 	0
scalar MyScenario.node[73].nic.mac1609_4 	TooLittleTime 	0
scalar MyScenario.node[73].nic.mac1609_4 	TimesIntoBackoff 	1
scalar MyScenario.node[73].nic.mac1609_4 	SlotsBackoff 	2
scalar MyScenario.node[73].nic.mac1609_4 	NumInternalContention 	0
scalar MyScenario.node[73].nic.mac1609_4 	totalBusyTime 	0.00371300113
scalar MyScenario.node[73].veinsmobility 	startTime 	1
scalar MyScenario.node[73].veinsmobility 	totalTime 	35
scalar MyScenario.node[73].veinsmobility 	stopTime 	37
scalar MyScenario.node[73].veinsmobility 	minSpeed 	0.024419025280373
scalar MyScenario.node[73].veinsmobility 	maxSpeed 	13.840999972099
scalar MyScenario.node[73].veinsmobility 	totalDistance 	281.58595243346
scalar MyScenario.node[73].veinsmobility 	totalCO2Emission 	115.91594633289
scalar MyScenario.node[261].appl 	generatedWSMs 	1
scalar MyScenario.node[261].appl 	receivedWSMs 	7
scalar MyScenario.node[261].appl 	generatedBSMs 	0
scalar MyScenario.node[261].appl 	receivedBSMs 	0
scalar MyScenario.node[261].appl 	generatedWSAs 	0
scalar MyScenario.node[261].appl 	receivedWSAs 	0
scalar MyScenario.node[261].nic.phy80211p 	busyTime 	0.00029341176470588
scalar MyScenario.node[261].nic.mac1609_4 	ReceivedUnicastPackets 	0
scalar MyScenario.node[261].nic.mac1609_4 	ReceivedBroadcasts 	7
scalar MyScenario.node[261].nic.mac1609_4 	SentPackets 	1
scalar MyScenario.node[261].nic.mac1609_4 	SNIRLostPackets 	36
scalar MyScenario.node[261].nic.mac1609_4 	RXTXLostPackets 	5
scalar MyScenario.node[261].nic.mac1609_4 	TotalLostPackets 	41
scalar MyScenario.node[261].nic.mac1609_4 	DroppedPacketsInMac 	0
scalar MyScenario.node[261].nic.mac1609_4 	TooLittleTime 	0
scalar MyScenario.node[261].nic.mac1609_4 	TimesIntoBackoff 	1
scalar MyScenario.node[261].nic.mac1609_4 	SlotsBackoff 	1
scalar MyScenario.node[261].nic.mac1609_4 	NumInternalContention 	0
scalar MyScenario.node[261].nic.mac1609_4 	totalBusyTime 	0.003713
scalar MyScenario.node[261].veinsmobility 	startTime 	4
scalar MyScenario.node[261].veinsmobility 	totalTime 	33
scalar MyScenario.node[261].veinsmobility 	stopTime 	38
scalar MyScenario.node[261].veinsmobility 	minSpeed 	2.1877319309162
scalar MyScenario.node[261].veinsmobility 	maxSpeed 	13.86198481482
scalar MyScenario.node[261].veinsmobility 	totalDistance 	370.01870289769
scalar MyScenario.node[261].veinsmobility 	totalCO2Emission 	113.24626931929
scalar MyScenario.node[123].appl 	generatedWSMs 	0
scalar MyScenario.node[123].appl 	receivedWSMs 	0
scalar MyScenario.node[123].appl 	generatedBSMs 	0
scalar MyScenario.node[123].appl 	receivedBSMs 	0
scalar MyScenario.node[123].appl 	generatedWSAs 	0
scalar MyScenario.node[123].appl 	receivedWSAs 	0
scalar MyScenario.node[123].nic.phy80211p 	busyTime 	7.3263157894737e-05
scalar MyScenario.node[123].nic.mac1609_4 	ReceivedUnicastPackets 	0
scalar MyScenario.node[123].nic.mac1609_4 	ReceivedBroadcasts 	0
scalar MyScenario.node[123].nic.mac1609_4 	SentPackets 	0
scalar MyScenario.node[123].nic.mac1609_4 	SNIRLostPackets 	12
scalar MyScenario.node[123].nic.mac1609_4 	RXTXLostPackets 	0
scalar MyScenario.node[123].nic.mac1609_4 	TotalLostPackets 	12
scalar MyScenario.node[123].nic.mac1609_4 	DroppedPacketsInMac 	0
scalar MyScenario.node[123].nic.mac1609_4 	TooLittleTime 	0
scalar MyScenario.node[123].nic.mac1609_4 	TimesIntoBackoff 	0
scalar MyScenario.node[123].nic.mac1609_4 	SlotsBackoff 	0
scalar MyScenario.node[123].nic.mac1609_4 	NumInternalContention 	0
scalar MyScenario.node[123].nic.mac1609_4 	totalBusyTime 	0.00116
scalar MyScenario.node[123].veinsmobility 	startTime 	1
scalar MyScenario.node[123].veinsmobility 	totalTime 	37
scalar MyScenario.node[123].veinsmobility 	stopTime 	39
scalar MyScenario.node[123].veinsmobility 	minSpeed 	2.2092964200536
scalar MyScenario.node[123].veinsmobility 	maxSpeed 	13.893900205847
scalar MyScenario.node[123].veinsmobility 	totalDistance 	374.87723233973
scalar MyScenario.node[123].veinsmobility 	totalCO2Emission 	123.78318134267
scalar MyScenario.node[116].appl 	generatedWSMs 	1
scalar MyScenario.node[116].appl 	receivedWSMs 	1
scalar MyScenario.node[116].appl 	generatedBSMs 	0
scalar MyScenario.node[116].appl 	receivedBSMs 	0
scalar MyScenario.node[116].appl 	generatedWSAs 	0
scalar MyScenario.node[116].appl 	receivedWSAs 	0
scalar MyScenario.node[116].nic.phy80211p 	busyTime 	0.0001665641025641
scalar MyScenario.node[116].nic.mac1609_4 	ReceivedUnicastPackets 	0
scalar MyScenario.node[116].nic.mac1609_4 	ReceivedBroadcasts 	1
scalar MyScenario.node[116].nic.mac1609_4 	SentPackets 	1
scalar MyScenario.node[116].nic.mac1609_4 	SNIRLostPackets 	27
scalar MyScenario.node[116].nic.mac1609_4 	RXTXLostPackets 	2
scalar MyScenario.node[116].nic.mac1609_4 	TotalLostPackets 	29
scalar MyScenario.node[116].nic.mac1609_4 	DroppedPacketsInMac 	0
scalar MyScenario.node[116].nic.mac1609_4 	TooLittleTime 	0
scalar MyScenario.node[116].nic.mac1609_4 	TimesIntoBackoff 	1
scalar MyScenario.node[116].nic.mac1609_4 	SlotsBackoff 	3
scalar MyScenario.node[116].nic.mac1609_4 	NumInternalContention 	0
scalar MyScenario.node[116].nic.mac1609_4 	totalBusyTime 	0.002553
scalar MyScenario.node[116].veinsmobility 	startTime 	1
scalar MyScenario.node[116].veinsmobility 	totalTime 	38
scalar MyScenario.node[116].veinsmobility 	stopTime 	40
scalar MyScenario.node[116].veinsmobility 	minSpeed 	0.17202131459508
scalar MyScenario.node[116].veinsmobility 	maxSpeed 	13.759683917067
scalar MyScenario.node[116].veinsmobility 	totalDistance 	367.43512436806
scalar MyScenario.node[116].veinsmobility 	totalCO2Emission 	126.31037699552
scalar MyScenario.node[207].appl 	generatedWSMs 	0
scalar MyScenario.node[207].appl 	receivedWSMs 	0
scalar MyScenario.node[207].appl 	generatedBSMs 	0
scalar MyScenario.node[207].appl 	receivedBSMs 	0
scalar MyScenario.node[207].appl 	generatedWSAs 	0
scalar MyScenario.node[207].appl 	receivedWSAs 	0
scalar MyScenario.node[207].nic.phy80211p 	busyTime 	8.3777777777778e-05
scalar MyScenario.node[207].nic.mac1609_4 	ReceivedUnicastPackets 	0
scalar MyScenario.node[207].nic.mac1609_4 	ReceivedBroadcasts 	0
scalar MyScenario.node[207].nic.mac1609_4 	SentPackets 	0
scalar MyScenario.node[207].nic.mac1609_4 	SNIRLostPackets 	13
scalar MyScenario.node[207].nic.mac1609_4 	RXTXLostPackets 	0
scalar MyScenario.node[207].nic.mac1609_4 	TotalLostPackets 	13
scalar MyScenario.node[207].nic.mac1609_4 	DroppedPacketsInMac 	0
scalar MyScenario.node[207].nic.mac1609_4 	TooLittleTime 	0
scalar MyScenario.node[207].nic.mac1609_4 	TimesIntoBackoff 	0
scalar MyScenario.node[207].nic.mac1609_4 	SlotsBackoff 	0
scalar MyScenario.node[207].nic.mac1609_4 	NumInternalContention 	0
scalar MyScenario.node[207].nic.mac1609_4 	totalBusyTime 	0.000928
scalar MyScenario.node[207].veinsmobility 	startTime 	4
scalar MyScenario.node[207].veinsmobility 	totalTime 	35
scalar MyScenario.node[207].veinsmobility 	stopTime 	40
scalar MyScenario.node[207].veinsmobility 	minSpeed 	2.4634822832653
scalar MyScenario.node[207].veinsmobility 	maxSpeed 	13.80167036613
scalar MyScenario.node[207].veinsmobility 	totalDistance 	371.16833117896
scalar MyScenario.node[207].veinsmobility 	totalCO2Emission 	122.50316804879
scalar MyScenario.node[77].appl 	generatedWSMs 	1
scalar MyScenario.node[77].appl 	receivedWSMs 	4
scalar MyScenario.node[77].appl 	generatedBSMs 	0
scalar MyScenario.node[77].appl 	receivedBSMs 	0
scalar MyScenario.node[77].appl 	generatedWSAs 	0
scalar MyScenario.node[77].appl 	receivedWSAs 	0
scalar MyScenario.node[77].nic.phy80211p 	busyTime 	0.0001218
scalar MyScenario.node[77].nic.mac1609_4 	ReceivedUnicastPackets 	0
scalar MyScenario.node[77].nic.mac1609_4 	ReceivedBroadcasts 	4
scalar MyScenario.node[77].nic.mac1609_4 	SentPackets 	1
scalar MyScenario.node[77].nic.mac1609_4 	SNIRLostPackets 	17
scalar MyScenario.node[77].nic.mac1609_4 	RXTXLostPackets 	10
scalar MyScenario.node[77].nic.mac1609_4 	TotalLostPackets 	27
scalar MyScenario.node[77].nic.mac1609_4 	DroppedPacketsInMac 	0
scalar MyScenario.node[77].nic.mac1609_4 	TooLittleTime 	0
scalar MyScenario.node[77].nic.mac1609_4 	TimesIntoBackoff 	1
scalar MyScenario.node[77].nic.mac1609_4 	SlotsBackoff 	2
scalar MyScenario.node[77].nic.mac1609_4 	NumInternalContention 	0
scalar MyScenario.node[77].nic.mac1609_4 	totalBusyTime 	0.003249005025
scalar MyScenario.node[77].veinsmobility 	startTime 	1
scalar MyScenario.node[77].veinsmobility 	totalTime 	39
scalar MyScenario.node[77].veinsmobility 	stopTime 	41
scalar MyScenario.node[77].veinsmobility 	minSpeed 	1.5182165010367
scalar MyScenario.node[77].veinsmobility 	maxSpeed 	13.828405437456
scalar MyScenario.node[77].veinsmobility 	totalDistance 	472.8529524346
scalar MyScenario.node[77].veinsmobility 	totalCO2Emission 	106.3429253503
scalar MyScenario.node[142].appl 	generatedWSMs 	1
scalar MyScenario.node[142].appl 	receivedWSMs 	7
scalar MyScenario.node[142].appl 	generatedBSMs 	0
scalar MyScenario.node[142].appl 	receivedBSMs 	0
scalar MyScenario.node[142].appl 	generatedWSAs 	0
scalar MyScenario.node[142].appl 	receivedWSAs 	0
scalar MyScenario.node[142].nic.phy80211p 	busyTime 	0.00029990243902439
scalar MyScenario.node[142].nic.mac1609_4 	ReceivedUnicastPackets 	0
scalar MyScenario.node[142].nic.mac1609_4 	ReceivedBroadcasts 	7
scalar MyScenario.node[142].nic.mac1609_4 	SentPackets 	1
scalar MyScenario.node[142].nic.mac1609_4 	SNIRLostPackets 	46
scalar MyScenario.node[142].nic.mac1609_4 	RXTXLostPackets 	9
scalar MyScenario.node[142].nic.mac1609_4 	TotalLostPackets 	55
scalar MyScenario.node[142].nic.mac1609_4 	DroppedPacketsInMac 	0
scalar MyScenario.node[142].nic.mac1609_4 	TooLittleTime 	0
scalar MyScenario.node[142].nic.mac1609_4 	TimesIntoBackoff 	1
scalar MyScenario.node[142].nic.mac1609_4 	SlotsBackoff 	0
scalar MyScenario.node[142].nic.mac1609_4 	NumInternalContention 	0
scalar MyScenario.node[142].nic.mac1609_4 	totalBusyTime 	0.005105
scalar MyScenario.node[142].veinsmobility 	startTime 	1
scalar MyScenario.node[142].veinsmobility 	totalTime 	40
scalar MyScenario.node[142].veinsmobility 	stopTime 	42
scalar MyScenario.node[142].veinsmobility 	minSpeed 	1.8007278819103
scalar MyScenario.node[142].veinsmobility 	maxSpeed 	13.899656744418
scalar MyScenario.node[142].veinsmobility 	totalDistance 	472.88874872641
scalar MyScenario.node[142].veinsmobility 	totalCO2Emission 	118.8703601191
scalar MyScenario.node[183].appl 	generatedWSMs 	1
scalar MyScenario.node[183].appl 	receivedWSMs 	3
scalar MyScenario.node[183].appl 	generatedBSMs 	0
scalar MyScenario.node[183].appl 	receivedBSMs 	0
scalar MyScenario.node[183].appl 	generatedWSAs 	0
scalar MyScenario.node[183].appl 	receivedWSAs 	0
scalar MyScenario.node[183].nic.phy80211p 	busyTime 	0.00014361904761905
scalar MyScenario.node[183].nic.mac1609_4 	ReceivedUnicastPackets 	0
scalar MyScenario.node[183].nic.mac1609_4 	ReceivedBroadcasts 	3
scalar MyScenario.node[183].nic.mac1609_4 	SentPackets 	1
scalar MyScenario.node[183].nic.mac1609_4 	SNIRLostPackets 	23
scalar MyScenario.node[183].nic.mac1609_4 	RXTXLostPackets 	8
scalar MyScenario.node[183].nic.mac1609_4 	TotalLostPackets 	31
scalar MyScenario.node[183].nic.mac1609_4 	DroppedPacketsInMac 	0
scalar MyScenario.node[183].nic.mac1609_4 	TooLittleTime 	0
scalar MyScenario.node[183].nic.mac1609_4 	TimesIntoBackoff 	1
scalar MyScenario.node[183].nic.mac1609_4 	SlotsBackoff 	3
scalar MyScenario.node[183].nic.mac1609_4 	NumInternalContention 	0
scalar MyScenario.node[183].nic.mac1609_4 	totalBusyTime 	0.002321
scalar MyScenario.node[183].veinsmobility 	startTime 	1
scalar MyScenario.node[183].veinsmobility 	totalTime 	41
scalar MyScenario.node[183].veinsmobility 	stopTime 	43
scalar MyScenario.node[183].veinsmobility 	minSpeed 	2.2241574415937
scalar MyScenario.node[183].veinsmobility 	maxSpeed 	13.870080730133
scalar MyScenario.node[183].veinsmobility 	totalDistance 	462.60720052448
scalar MyScenario.node[183].veinsmobility 	totalCO2Emission 	139.96790392467
scalar MyScenario.node[68].appl 	generatedWSMs 	1
scalar MyScenario.node[68].appl 	receivedWSMs 	9
scalar MyScenario.node[68].appl 	generatedBSMs 	0
scalar MyScenario.node[68].appl 	receivedBSMs 	0
scalar MyScenario.node[68].appl 	generatedWSAs 	0
scalar MyScenario.node[68].appl 	receivedWSAs 	0
scalar MyScenario.node[68].nic.phy80211p 	busyTime 	0.000232
scalar MyScenario.node[68].nic.mac1609_4 	ReceivedUnicastPackets 	0
scalar MyScenario.node[68].nic.mac1609_4 	ReceivedBroadcasts 	9
scalar MyScenario.node[68].nic.mac1609_4 	SentPackets 	1
scalar MyScenario.node[68].nic.mac1609_4 	SNIRLostPackets 	35
scalar MyScenario.node[68].nic.mac1609_4 	RXTXLostPackets 	0
scalar MyScenario.node[68].nic.mac1609_4 	TotalLostPackets 	35
scalar MyScenario.node[68].nic.mac1609_4 	DroppedPacketsInMac 	0
scalar MyScenario.node[68].nic.mac1609_4 	TooLittleTime 	0
scalar MyScenario.node[68].nic.mac1609_4 	TimesIntoBackoff 	1
scalar MyScenario.node[68].nic.mac1609_4 	SlotsBackoff 	0
scalar MyScenario.node[68].nic.mac1609_4 	NumInternalContention 	0
scalar MyScenario.node[68].nic.mac1609_4 	totalBusyTime 	0.003945
scalar MyScenario.node[68].veinsmobility 	startTime 	1
scalar MyScenario.node[68].veinsmobility 	totalTime 	43
scalar MyScenario.node[68].veinsmobility 	stopTime 	45
scalar MyScenario.node[68].veinsmobility 	minSpeed 	0.23708510039799
scalar MyScenario.node[68].veinsmobility 	maxSpeed 	13.508927749051
scalar MyScenario.node[68].veinsmobility 	totalDistance 	368.93829833858
scalar MyScenario.node[68].veinsmobility 	totalCO2Emission 	139.74877718805
scalar MyScenario.node[211].appl 	generatedWSMs 	1
scalar MyScenario.node[211].appl 	receivedWSMs 	10
scalar MyScenario.node[211].appl 	generatedBSMs 	0
scalar MyScenario.node[211].appl 	receivedBSMs 	0
scalar MyScenario.node[211].appl 	generatedWSAs 	0
scalar MyScenario.node[211].appl 	receivedWSAs 	0
scalar MyScenario.node[211].nic.phy80211p 	busyTime 	0.00021542857142857
scalar MyScenario.node[211].nic.mac1609_4 	ReceivedUnicastPackets 	0
scalar MyScenario.node[211].nic.mac1609_4 	ReceivedBroadcasts 	10
scalar MyScenario.node[211].nic.mac1609_4 	SentPackets 	1
scalar MyScenario.node[211].nic.mac1609_4 	SNIRLostPackets 	29
scalar MyScenario.node[211].nic.mac1609_4 	RXTXLostPackets 	5
scalar MyScenario.node[211].nic.mac1609_4 	TotalLostPackets 	34
scalar MyScenario.node[211].nic.mac1609_4 	DroppedPacketsInMac 	0
scalar MyScenario.node[211].nic.mac1609_4 	TooLittleTime 	0
scalar MyScenario.node[211].nic.mac1609_4 	TimesIntoBackoff 	1
scalar MyScenario.node[211].nic.mac1609_4 	SlotsBackoff 	1
scalar MyScenario.node[211].nic.mac1609_4 	NumInternalContention 	0
scalar MyScenario.node[211].nic.mac1609_4 	totalBusyTime 	0.004409151297
scalar MyScenario.node[211].veinsmobility 	startTime 	4
scalar MyScenario.node[211].veinsmobility 	totalTime 	41
scalar MyScenario.node[211].veinsmobility 	stopTime 	46
scalar MyScenario.node[211].veinsmobility 	minSpeed 	2.1667118934914
scalar MyScenario.node[211].veinsmobility 	maxSpeed 	13.837941836077
scalar MyScenario.node[211].veinsmobility 	totalDistance 	479.3333837807
scalar MyScenario.node[211].veinsmobility 	totalCO2Emission 	135.70497066431
scalar MyScenario.node[82].appl 	generatedWSMs 	1
scalar MyScenario.node[82].appl 	receivedWSMs 	1
scalar MyScenario.node[82].appl 	generatedBSMs 	0
scalar MyScenario.node[82].appl 	receivedBSMs 	0
scalar MyScenario.node[82].appl 	generatedWSAs 	0
scalar MyScenario.node[82].appl 	receivedWSAs 	0
scalar MyScenario.node[82].nic.phy80211p 	busyTime 	0.00011342222222222
scalar MyScenario.node[82].nic.mac1609_4 	ReceivedUnicastPackets 	0
scalar MyScenario.node[82].nic.mac1609_4 	ReceivedBroadcasts 	1
scalar MyScenario.node[82].nic.mac1609_4 	SentPackets 	1
scalar MyScenario.node[82].nic.mac1609_4 	SNIRLostPackets 	21
scalar MyScenario.node[82].nic.mac1609_4 	RXTXLostPackets 	10
scalar MyScenario.node[82].nic.mac1609_4 	TotalLostPackets 	31
scalar MyScenario.node[82].nic.mac1609_4 	DroppedPacketsInMac 	0
scalar MyScenario.node[82].nic.mac1609_4 	TooLittleTime 	0
scalar MyScenario.node[82].nic.mac1609_4 	TimesIntoBackoff 	1
scalar MyScenario.node[82].nic.mac1609_4 	SlotsBackoff 	2
scalar MyScenario.node[82].nic.mac1609_4 	NumInternalContention 	0
scalar MyScenario.node[82].nic.mac1609_4 	totalBusyTime 	0.001393049408
scalar MyScenario.node[82].veinsmobility 	startTime 	1
scalar MyScenario.node[82].veinsmobility 	totalTime 	44
scalar MyScenario.node[82].veinsmobility 	stopTime 	46
scalar MyScenario.node[82].veinsmobility 	minSpeed 	1.5580945410766
scalar MyScenario.node[82].veinsmobility 	maxSpeed 	13.882698447327
scalar MyScenario.node[82].veinsmobility 	totalDistance 	470.0678148733
scalar MyScenario.node[82].veinsmobility 	totalCO2Emission 	156.3393824774
scalar MyScenario.node[269].appl 	generatedWSMs 	1
scalar MyScenario.node[269].appl 	receivedWSMs 	16
scalar MyScenario.node[269].appl 	generatedBSMs 	0
scalar MyScenario.node[269].appl 	receivedBSMs 	0
scalar MyScenario.node[269].appl 	generatedWSAs 	0
scalar MyScenario.node[269].appl 	receivedWSAs 	0
scalar MyScenario.node[269].nic.phy80211p 	busyTime 	0.00020990476190476
scalar MyScenario.node[269].nic.mac1609_4 	ReceivedUnicastPackets 	0
scalar MyScenario.node[269].nic.mac1609_4 	ReceivedBroadcasts 	16
scalar MyScenario.node[269].nic.mac1609_4 	SentPackets 	1
scalar MyScenario.node[269].nic.mac1609_4 	SNIRLostPackets 	22
scalar MyScenario.node[269].nic.mac1609_4 	RXTXLostPackets 	6
scalar MyScenario.node[269].nic.mac1609_4 	TotalLostPackets 	28
scalar MyScenario.node[269].nic.mac1609_4 	DroppedPacketsInMac 	0
scalar MyScenario.node[269].nic.mac1609_4 	TooLittleTime 	0
scalar MyScenario.node[269].nic.mac1609_4 	TimesIntoBackoff 	1
scalar MyScenario.node[269].nic.mac1609_4 	SlotsBackoff 	2
scalar MyScenario.node[269].nic.mac1609_4 	NumInternalContention 	0
scalar MyScenario.node[269].nic.mac1609_4 	totalBusyTime 	0.005337
scalar MyScenario.node[269].veinsmobility 	startTime 	4
scalar MyScenario.node[269].veinsmobility 	totalTime 	41
scalar MyScenario.node[269].veinsmobility 	stopTime 	46
scalar MyScenario.node[269].veinsmobility 	minSpeed 	0.010402337845501
scalar MyScenario.node[269].veinsmobility 	maxSpeed 	13.789978587418
scalar MyScenario.node[269].veinsmobility 	totalDistance 	371.94314087688
scalar MyScenario.node[269].veinsmobility 	totalCO2Emission 	128.56038951625
scalar MyScenario.node[252].appl 	generatedWSMs 	0
scalar MyScenario.node[252].appl 	receivedWSMs 	0
scalar MyScenario.node[252].appl 	generatedBSMs 	0
scalar MyScenario.node[252].appl 	receivedBSMs 	0
scalar MyScenario.node[252].appl 	generatedWSAs 	0
scalar MyScenario.node[252].appl 	receivedWSAs 	0
scalar MyScenario.node[252].nic.phy80211p 	busyTime 	1.0790697674419e-05
scalar MyScenario.node[252].nic.mac1609_4 	ReceivedUnicastPackets 	0
scalar MyScenario.node[252].nic.mac1609_4 	ReceivedBroadcasts 	0
scalar MyScenario.node[252].nic.mac1609_4 	SentPackets 	0
scalar MyScenario.node[252].nic.mac1609_4 	SNIRLostPackets 	2
scalar MyScenario.node[252].nic.mac1609_4 	RXTXLostPackets 	0
scalar MyScenario.node[252].nic.mac1609_4 	TotalLostPackets 	2
scalar MyScenario.node[252].nic.mac1609_4 	DroppedPacketsInMac 	0
scalar MyScenario.node[252].nic.mac1609_4 	TooLittleTime 	0
scalar MyScenario.node[252].nic.mac1609_4 	TimesIntoBackoff 	0
scalar MyScenario.node[252].nic.mac1609_4 	SlotsBackoff 	0
scalar MyScenario.node[252].nic.mac1609_4 	NumInternalContention 	0
scalar MyScenario.node[252].nic.mac1609_4 	totalBusyTime 	0.000232
scalar MyScenario.node[252].veinsmobility 	startTime 	4
scalar MyScenario.node[252].veinsmobility 	totalTime 	42
scalar MyScenario.node[252].veinsmobility 	stopTime 	47
scalar MyScenario.node[252].veinsmobility 	minSpeed 	1.3018922372023
scalar MyScenario.node[252].veinsmobility 	maxSpeed 	13.881923665642
scalar MyScenario.node[252].veinsmobility 	totalDistance 	468.25603407773
scalar MyScenario.node[252].veinsmobility 	totalCO2Emission 	139.16651425884
scalar MyScenario.node[27].appl 	generatedWSMs 	1
scalar MyScenario.node[27].appl 	receivedWSMs 	19
scalar MyScenario.node[27].appl 	generatedBSMs 	0
scalar MyScenario.node[27].appl 	receivedBSMs 	0
scalar MyScenario.node[27].appl 	generatedWSAs 	0
scalar MyScenario.node[27].appl 	receivedWSAs 	0
scalar MyScenario.node[27].nic.phy80211p 	busyTime 	0.00030110638297872
scalar MyScenario.node[27].nic.mac1609_4 	ReceivedUnicastPackets 	0
scalar MyScenario.node[27].nic.mac1609_4 	ReceivedBroadcasts 	19
scalar MyScenario.node[27].nic.mac1609_4 	SentPackets 	1
scalar MyScenario.node[27].nic.mac1609_4 	SNIRLostPackets 	42
scalar MyScenario.node[27].nic.mac1609_4 	RXTXLostPackets 	8
scalar MyScenario.node[27].nic.mac1609_4 	TotalLostPackets 	50
scalar MyScenario.node[27].nic.mac1609_4 	DroppedPacketsInMac 	0
scalar MyScenario.node[27].nic.mac1609_4 	TooLittleTime 	0
scalar MyScenario.node[27].nic.mac1609_4 	TimesIntoBackoff 	1
scalar MyScenario.node[27].nic.mac1609_4 	SlotsBackoff 	1
scalar MyScenario.node[27].nic.mac1609_4 	NumInternalContention 	0
scalar MyScenario.node[27].nic.mac1609_4 	totalBusyTime 	0.007425
scalar MyScenario.node[27].veinsmobility 	startTime 	1
scalar MyScenario.node[27].veinsmobility 	totalTime 	46
scalar MyScenario.node[27].veinsmobility 	stopTime 	48
scalar MyScenario.node[27].veinsmobility 	minSpeed 	3.1431124508742e-06
scalar MyScenario.node[27].veinsmobility 	maxSpeed 	13.833642675797
scalar MyScenario.node[27].veinsmobility 	totalDistance 	280.0303035166
scalar MyScenario.node[27].veinsmobility 	totalCO2Emission 	139.87821480273
scalar MyScenario.node[216].appl 	generatedWSMs 	1
scalar MyScenario.node[216].appl 	receivedWSMs 	7
scalar MyScenario.node[216].appl 	generatedBSMs 	0
scalar MyScenario.node[216].appl 	receivedBSMs 	0
scalar MyScenario.node[216].appl 	generatedWSAs 	0
scalar MyScenario.node[216].appl 	receivedWSAs 	0
scalar MyScenario.node[216].nic.phy80211p 	busyTime 	0.00024231111111111
scalar MyScenario.node[216].nic.mac1609_4 	ReceivedUnicastPackets 	0
scalar MyScenario.node[216].nic.mac1609_4 	ReceivedBroadcasts 	7
scalar MyScenario.node[216].nic.mac1609_4 	SentPackets 	1
scalar MyScenario.node[216].nic.mac1609_4 	SNIRLostPackets 	40
scalar MyScenario.node[216].nic.mac1609_4 	RXTXLostPackets 	5
scalar MyScenario.node[216].nic.mac1609_4 	TotalLostPackets 	45
scalar MyScenario.node[216].nic.mac1609_4 	DroppedPacketsInMac 	0
scalar MyScenario.node[216].nic.mac1609_4 	TooLittleTime 	0
scalar MyScenario.node[216].nic.mac1609_4 	TimesIntoBackoff 	1
scalar MyScenario.node[216].nic.mac1609_4 	SlotsBackoff 	0
scalar MyScenario.node[216].nic.mac1609_4 	NumInternalContention 	0
scalar MyScenario.node[216].nic.mac1609_4 	totalBusyTime 	0.003017010464
scalar MyScenario.node[216].veinsmobility 	startTime 	4
scalar MyScenario.node[216].veinsmobility 	totalTime 	44
scalar MyScenario.node[216].veinsmobility 	stopTime 	49
scalar MyScenario.node[216].veinsmobility 	minSpeed 	0.095758169318238
scalar MyScenario.node[216].veinsmobility 	maxSpeed 	13.874960312597
scalar MyScenario.node[216].veinsmobility 	totalDistance 	369.45151748818
scalar MyScenario.node[216].veinsmobility 	totalCO2Emission 	143.68976333775
scalar MyScenario.node[54].appl 	generatedWSMs 	1
scalar MyScenario.node[54].appl 	receivedWSMs 	2
scalar MyScenario.node[54].appl 	generatedBSMs 	0
scalar MyScenario.node[54].appl 	receivedBSMs 	0
scalar MyScenario.node[54].appl 	generatedWSAs 	0
scalar MyScenario.node[54].appl 	receivedWSAs 	0
scalar MyScenario.node[54].nic.phy80211p 	busyTime 	4.8333333333333e-05
scalar MyScenario.node[54].nic.mac1609_4 	ReceivedUnicastPackets 	0
scalar MyScenario.node[54].nic.mac1609_4 	ReceivedBroadcasts 	2
scalar MyScenario.node[54].nic.mac1609_4 	SentPackets 	1
scalar MyScenario.node[54].nic.mac1609_4 	SNIRLostPackets 	8
scalar MyScenario.node[54].nic.mac1609_4 	RXTXLostPackets 	4
scalar MyScenario.node[54].nic.mac1609_4 	TotalLostPackets 	12
scalar MyScenario.node[54].nic.mac1609_4 	DroppedPacketsInMac 	0
scalar MyScenario.node[54].nic.mac1609_4 	TooLittleTime 	0
scalar MyScenario.node[54].nic.mac1609_4 	TimesIntoBackoff 	1
scalar MyScenario.node[54].nic.mac1609_4 	SlotsBackoff 	2
scalar MyScenario.node[54].nic.mac1609_4 	NumInternalContention 	0
scalar MyScenario.node[54].nic.mac1609_4 	totalBusyTime 	0.001161
scalar MyScenario.node[54].veinsmobility 	startTime 	1
scalar MyScenario.node[54].veinsmobility 	totalTime 	47
scalar MyScenario.node[54].veinsmobility 	stopTime 	49
scalar MyScenario.node[54].veinsmobility 	minSpeed 	2.2308740391396
scalar MyScenario.node[54].veinsmobility 	maxSpeed 	13.852642640402
scalar MyScenario.node[54].veinsmobility 	totalDistance 	560.19295238191
scalar MyScenario.node[54].veinsmobility 	totalCO2Emission 	136.91039905257
scalar MyScenario.node[70].appl 	generatedWSMs 	1
scalar MyScenario.node[70].appl 	receivedWSMs 	10
scalar MyScenario.node[70].appl 	generatedBSMs 	0
scalar MyScenario.node[70].appl 	receivedBSMs 	0
scalar MyScenario.node[70].appl 	generatedWSAs 	0
scalar MyScenario.node[70].appl 	receivedWSAs 	0
scalar MyScenario.node[70].nic.phy80211p 	busyTime 	0.0002175
scalar MyScenario.node[70].nic.mac1609_4 	ReceivedUnicastPackets 	0
scalar MyScenario.node[70].nic.mac1609_4 	ReceivedBroadcasts 	10
scalar MyScenario.node[70].nic.mac1609_4 	SentPackets 	1
scalar MyScenario.node[70].nic.mac1609_4 	SNIRLostPackets 	35
scalar MyScenario.node[70].nic.mac1609_4 	RXTXLostPackets 	16
scalar MyScenario.node[70].nic.mac1609_4 	TotalLostPackets 	51
scalar MyScenario.node[70].nic.mac1609_4 	DroppedPacketsInMac 	0
scalar MyScenario.node[70].nic.mac1609_4 	TooLittleTime 	0
scalar MyScenario.node[70].nic.mac1609_4 	TimesIntoBackoff 	1
scalar MyScenario.node[70].nic.mac1609_4 	SlotsBackoff 	0
scalar MyScenario.node[70].nic.mac1609_4 	NumInternalContention 	0
scalar MyScenario.node[70].nic.mac1609_4 	totalBusyTime 	0.003945125605
scalar MyScenario.node[70].veinsmobility 	startTime 	1
scalar MyScenario.node[70].veinsmobility 	totalTime 	47
scalar MyScenario.node[70].veinsmobility 	stopTime 	49
scalar MyScenario.node[70].veinsmobility 	minSpeed 	0.028226218681846
scalar MyScenario.node[70].veinsmobility 	maxSpeed 	13.898044298403
scalar MyScenario.node[70].veinsmobility 	totalDistance 	479.7059049717
scalar MyScenario.node[70].veinsmobility 	totalCO2Emission 	134.19763137924
scalar MyScenario.node[165].appl 	generatedWSMs 	0
scalar MyScenario.node[165].appl 	receivedWSMs 	0
scalar MyScenario.node[165].appl 	generatedBSMs 	0
scalar MyScenario.node[165].appl 	receivedBSMs 	0
scalar MyScenario.node[165].appl 	generatedWSAs 	0
scalar MyScenario.node[165].appl 	receivedWSAs 	0
scalar MyScenario.node[165].nic.phy80211p 	busyTime 	0.00016433333333333
scalar MyScenario.node[165].nic.mac1609_4 	ReceivedUnicastPackets 	0
scalar MyScenario.node[165].nic.mac1609_4 	ReceivedBroadcasts 	0
scalar MyScenario.node[165].nic.mac1609_4 	SentPackets 	0
scalar MyScenario.node[165].nic.mac1609_4 	SNIRLostPackets 	34
scalar MyScenario.node[165].nic.mac1609_4 	RXTXLostPackets 	0
scalar MyScenario.node[165].nic.mac1609_4 	TotalLostPackets 	34
scalar MyScenario.node[165].nic.mac1609_4 	DroppedPacketsInMac 	0
scalar MyScenario.node[165].nic.mac1609_4 	TooLittleTime 	0
scalar MyScenario.node[165].nic.mac1609_4 	TimesIntoBackoff 	0
scalar MyScenario.node[165].nic.mac1609_4 	SlotsBackoff 	0
scalar MyScenario.node[165].nic.mac1609_4 	NumInternalContention 	0
scalar MyScenario.node[165].nic.mac1609_4 	totalBusyTime 	0.002784031559
scalar MyScenario.node[165].veinsmobility 	startTime 	1
scalar MyScenario.node[165].veinsmobility 	totalTime 	47
scalar MyScenario.node[165].veinsmobility 	stopTime 	49
scalar MyScenario.node[165].veinsmobility 	minSpeed 	1.5338902748423
scalar MyScenario.node[165].veinsmobility 	maxSpeed 	13.898849049932
scalar MyScenario.node[165].veinsmobility 	totalDistance 	562.30560684277
scalar MyScenario.node[165].veinsmobility 	totalCO2Emission 	132.21068465835
scalar MyScenario.node[5].appl 	generatedWSMs 	1
scalar MyScenario.node[5].appl 	receivedWSMs 	8
scalar MyScenario.node[5].appl 	generatedBSMs 	0
scalar MyScenario.node[5].appl 	receivedBSMs 	0
scalar MyScenario.node[5].appl 	generatedWSAs 	0
scalar MyScenario.node[5].appl 	receivedWSAs 	0
scalar MyScenario.node[5].nic.phy80211p 	busyTime 	0.00012528
scalar MyScenario.node[5].nic.mac1609_4 	ReceivedUnicastPackets 	0
scalar MyScenario.node[5].nic.mac1609_4 	ReceivedBroadcasts 	8
scalar MyScenario.node[5].nic.mac1609_4 	SentPackets 	1
scalar MyScenario.node[5].nic.mac1609_4 	SNIRLostPackets 	19
scalar MyScenario.node[5].nic.mac1609_4 	RXTXLostPackets 	16
scalar MyScenario.node[5].nic.mac1609_4 	TotalLostPackets 	35
scalar MyScenario.node[5].nic.mac1609_4 	DroppedPacketsInMac 	0
scalar MyScenario.node[5].nic.mac1609_4 	TooLittleTime 	0
scalar MyScenario.node[5].nic.mac1609_4 	TimesIntoBackoff 	1
scalar MyScenario.node[5].nic.mac1609_4 	SlotsBackoff 	1
scalar MyScenario.node[5].nic.mac1609_4 	NumInternalContention 	0
scalar MyScenario.node[5].nic.mac1609_4 	totalBusyTime 	0.004409002869
scalar MyScenario.node[5].veinsmobility 	startTime 	1
scalar MyScenario.node[5].veinsmobility 	totalTime 	49
scalar MyScenario.node[5].veinsmobility 	stopTime 	51
scalar MyScenario.node[5].veinsmobility 	minSpeed 	7.4888266890207e-09
scalar MyScenario.node[5].veinsmobility 	maxSpeed 	13.828127047676
scalar MyScenario.node[5].veinsmobility 	totalDistance 	383.07593683768
scalar MyScenario.node[5].veinsmobility 	totalCO2Emission 	130.3137648684
scalar MyScenario.node[231].appl 	generatedWSMs 	1
scalar MyScenario.node[231].appl 	receivedWSMs 	10
scalar MyScenario.node[231].appl 	generatedBSMs 	0
scalar MyScenario.node[231].appl 	receivedBSMs 	0
scalar MyScenario.node[231].appl 	generatedWSAs 	0
scalar MyScenario.node[231].appl 	receivedWSAs 	0
scalar MyScenario.node[231].nic.phy80211p 	busyTime 	0.00015302127659574
scalar MyScenario.node[231].nic.mac1609_4 	ReceivedUnicastPackets 	0
scalar MyScenario.node[231].nic.mac1609_4 	ReceivedBroadcasts 	10
scalar MyScenario.node[231].nic.mac1609_4 	SentPackets 	1
scalar MyScenario.node[231].nic.mac1609_4 	SNIRLostPackets 	21
scalar MyScenario.node[231].nic.mac1609_4 	RXTXLostPackets 	3
scalar MyScenario.node[231].nic.mac1609_4 	TotalLostPackets 	24
scalar MyScenario.node[231].nic.mac1609_4 	DroppedPacketsInMac 	0
scalar MyScenario.node[231].nic.mac1609_4 	TooLittleTime 	0
scalar MyScenario.node[231].nic.mac1609_4 	TimesIntoBackoff 	1
scalar MyScenario.node[231].nic.mac1609_4 	SlotsBackoff 	3
scalar MyScenario.node[231].nic.mac1609_4 	NumInternalContention 	0
scalar MyScenario.node[231].nic.mac1609_4 	totalBusyTime 	0.004409
scalar MyScenario.node[231].veinsmobility 	startTime 	4
scalar MyScenario.node[231].veinsmobility 	totalTime 	46
scalar MyScenario.node[231].veinsmobility 	stopTime 	51
scalar MyScenario.node[231].veinsmobility 	minSpeed 	1.7836069364799
scalar MyScenario.node[231].veinsmobility 	maxSpeed 	13.829732366488
scalar MyScenario.node[231].veinsmobility 	totalDistance 	568.96477713797
scalar MyScenario.node[231].veinsmobility 	totalCO2Emission 	124.45835800618
scalar MyScenario.node[141].appl 	generatedWSMs 	0
scalar MyScenario.node[141].appl 	receivedWSMs 	0
scalar MyScenario.node[141].appl 	generatedBSMs 	0
scalar MyScenario.node[141].appl 	receivedBSMs 	0
scalar MyScenario.node[141].appl 	generatedWSAs 	0
scalar MyScenario.node[141].appl 	receivedWSAs 	0
scalar MyScenario.node[141].nic.phy80211p 	busyTime 	0.00014848
scalar MyScenario.node[141].nic.mac1609_4 	ReceivedUnicastPackets 	0
scalar MyScenario.node[141].nic.mac1609_4 	ReceivedBroadcasts 	0
scalar MyScenario.node[141].nic.mac1609_4 	SentPackets 	0
scalar MyScenario.node[141].nic.mac1609_4 	SNIRLostPackets 	32
scalar MyScenario.node[141].nic.mac1609_4 	RXTXLostPackets 	0
scalar MyScenario.node[141].nic.mac1609_4 	TotalLostPackets 	32
scalar MyScenario.node[141].nic.mac1609_4 	DroppedPacketsInMac 	0
scalar MyScenario.node[141].nic.mac1609_4 	TooLittleTime 	0
scalar MyScenario.node[141].nic.mac1609_4 	TimesIntoBackoff 	0
scalar MyScenario.node[141].nic.mac1609_4 	SlotsBackoff 	0
scalar MyScenario.node[141].nic.mac1609_4 	NumInternalContention 	0
scalar MyScenario.node[141].nic.mac1609_4 	totalBusyTime 	0.002088
scalar MyScenario.node[141].veinsmobility 	startTime 	1
scalar MyScenario.node[141].veinsmobility 	totalTime 	49
scalar MyScenario.node[141].veinsmobility 	stopTime 	51
scalar MyScenario.node[141].veinsmobility 	minSpeed 	1.6871864205692
scalar MyScenario.node[141].veinsmobility 	maxSpeed 	13.83131933806
scalar MyScenario.node[141].veinsmobility 	totalDistance 	576.23188359812
scalar MyScenario.node[141].veinsmobility 	totalCO2Emission 	144.52698740689
scalar MyScenario.node[273].appl 	generatedWSMs 	1
scalar MyScenario.node[273].appl 	receivedWSMs 	3
scalar MyScenario.node[273].appl 	generatedBSMs 	0
scalar MyScenario.node[273].appl 	receivedBSMs 	0
scalar MyScenario.node[273].appl 	generatedWSAs 	0
scalar MyScenario.node[273].appl 	receivedWSAs 	0
scalar MyScenario.node[273].nic.phy80211p 	busyTime 	0.00010633333333333
scalar MyScenario.node[273].nic.mac1609_4 	ReceivedUnicastPackets 	0
scalar MyScenario.node[273].nic.mac1609_4 	ReceivedBroadcasts 	3
scalar MyScenario.node[273].nic.mac1609_4 	SentPackets 	1
scalar MyScenario.node[273].nic.mac1609_4 	SNIRLostPackets 	19
scalar MyScenario.node[273].nic.mac1609_4 	RXTXLostPackets 	0
scalar MyScenario.node[273].nic.mac1609_4 	TotalLostPackets 	19
scalar MyScenario.node[273].nic.mac1609_4 	DroppedPacketsInMac 	0
scalar MyScenario.node[273].nic.mac1609_4 	TooLittleTime 	0
scalar MyScenario.node[273].nic.mac1609_4 	TimesIntoBackoff 	1
scalar MyScenario.node[273].nic.mac1609_4 	SlotsBackoff 	0
scalar MyScenario.node[273].nic.mac1609_4 	NumInternalContention 	0
scalar MyScenario.node[273].nic.mac1609_4 	totalBusyTime 	0.002089
scalar MyScenario.node[273].veinsmobility 	startTime 	4
scalar MyScenario.node[273].veinsmobility 	totalTime 	47
scalar MyScenario.node[273].veinsmobility 	stopTime 	52
scalar MyScenario.node[273].veinsmobility 	minSpeed 	1.221095947537
scalar MyScenario.node[273].veinsmobility 	maxSpeed 	13.833582957066
scalar MyScenario.node[273].veinsmobility 	totalDistance 	471.52444163216
scalar MyScenario.node[273].veinsmobility 	totalCO2Emission 	163.95960349346
scalar MyScenario.node[232].appl 	generatedWSMs 	0
scalar MyScenario.node[232].appl 	receivedWSMs 	0
scalar MyScenario.node[232].appl 	generatedBSMs 	0
scalar MyScenario.node[232].appl 	receivedBSMs 	0
scalar MyScenario.node[232].appl 	generatedWSAs 	0
scalar MyScenario.node[232].appl 	receivedWSAs 	0
scalar MyScenario.node[232].nic.phy80211p 	busyTime 	1.45e-05
scalar MyScenario.node[232].nic.mac1609_4 	ReceivedUnicastPackets 	0
scalar MyScenario.node[232].nic.mac1609_4 	ReceivedBroadcasts 	0
scalar MyScenario.node[232].nic.mac1609_4 	SentPackets 	0
scalar MyScenario.node[232].nic.mac1609_4 	SNIRLostPackets 	3
scalar MyScenario.node[232].nic.mac1609_4 	RXTXLostPackets 	0
scalar MyScenario.node[232].nic.mac1609_4 	TotalLostPackets 	3
scalar MyScenario.node[232].nic.mac1609_4 	DroppedPacketsInMac 	0
scalar MyScenario.node[232].nic.mac1609_4 	TooLittleTime 	0
scalar MyScenario.node[232].nic.mac1609_4 	TimesIntoBackoff 	0
scalar MyScenario.node[232].nic.mac1609_4 	SlotsBackoff 	0
scalar MyScenario.node[232].nic.mac1609_4 	NumInternalContention 	0
scalar MyScenario.node[232].nic.mac1609_4 	totalBusyTime 	0.000464
scalar MyScenario.node[232].veinsmobility 	startTime 	4
scalar MyScenario.node[232].veinsmobility 	totalTime 	47
scalar MyScenario.node[232].veinsmobility 	stopTime 	52
scalar MyScenario.node[232].veinsmobility 	minSpeed 	1.4498674345436
scalar MyScenario.node[232].veinsmobility 	maxSpeed 	13.889985622396
scalar MyScenario.node[232].veinsmobility 	totalDistance 	563.31846009169
scalar MyScenario.node[232].veinsmobility 	totalCO2Emission 	138.1406478703
scalar MyScenario.node[101].appl 	generatedWSMs 	1
scalar MyScenario.node[101].appl 	receivedWSMs 	4
scalar MyScenario.node[101].appl 	generatedBSMs 	0
scalar MyScenario.node[101].appl 	receivedBSMs 	0
scalar MyScenario.node[101].appl 	generatedWSAs 	0
scalar MyScenario.node[101].appl 	receivedWSAs 	0
scalar MyScenario.node[101].nic.phy80211p 	busyTime 	0.00018738461538462
scalar MyScenario.node[101].nic.mac1609_4 	ReceivedUnicastPackets 	0
scalar MyScenario.node[101].nic.mac1609_4 	ReceivedBroadcasts 	4
scalar MyScenario.node[101].nic.mac1609_4 	SentPackets 	1
scalar MyScenario.node[101].nic.mac1609_4 	SNIRLostPackets 	38
scalar MyScenario.node[101].nic.mac1609_4 	RXTXLostPackets 	11
scalar MyScenario.node[101].nic.mac1609_4 	TotalLostPackets 	49
scalar MyScenario.node[101].nic.mac1609_4 	DroppedPacketsInMac 	0
scalar MyScenario.node[101].nic.mac1609_4 	TooLittleTime 	0
scalar MyScenario.node[101].nic.mac1609_4 	TimesIntoBackoff 	1
scalar MyScenario.node[101].nic.mac1609_4 	SlotsBackoff 	0
scalar MyScenario.node[101].nic.mac1609_4 	NumInternalContention 	0
scalar MyScenario.node[101].nic.mac1609_4 	totalBusyTime 	0.003017
scalar MyScenario.node[101].veinsmobility 	startTime 	1
scalar MyScenario.node[101].veinsmobility 	totalTime 	51
scalar MyScenario.node[101].veinsmobility 	stopTime 	53
scalar MyScenario.node[101].veinsmobility 	minSpeed 	0.068957632590064
scalar MyScenario.node[101].veinsmobility 	maxSpeed 	13.830768806115
scalar MyScenario.node[101].veinsmobility 	totalDistance 	475.55903957145
scalar MyScenario.node[101].veinsmobility 	totalCO2Emission 	172.38407310188
scalar MyScenario.node[72].appl 	generatedWSMs 	0
scalar MyScenario.node[72].appl 	receivedWSMs 	0
scalar MyScenario.node[72].appl 	generatedBSMs 	0
scalar MyScenario.node[72].appl 	receivedBSMs 	0
scalar MyScenario.node[72].appl 	generatedWSAs 	0
scalar MyScenario.node[72].appl 	receivedWSAs 	0
scalar MyScenario.node[72].nic.phy80211p 	busyTime 	2.2307692307692e-05
scalar MyScenario.node[72].nic.mac1609_4 	ReceivedUnicastPackets 	0
scalar MyScenario.node[72].nic.mac1609_4 	ReceivedBroadcasts 	0
scalar MyScenario.node[72].nic.mac1609_4 	SentPackets 	0
scalar MyScenario.node[72].nic.mac1609_4 	SNIRLostPackets 	5
scalar MyScenario.node[72].nic.mac1609_4 	RXTXLostPackets 	0
scalar MyScenario.node[72].nic.mac1609_4 	TotalLostPackets 	5
scalar MyScenario.node[72].nic.mac1609_4 	DroppedPacketsInMac 	0
scalar MyScenario.node[72].nic.mac1609_4 	TooLittleTime 	0
scalar MyScenario.node[72].nic.mac1609_4 	TimesIntoBackoff 	0
scalar MyScenario.node[72].nic.mac1609_4 	SlotsBackoff 	0
scalar MyScenario.node[72].nic.mac1609_4 	NumInternalContention 	0
scalar MyScenario.node[72].nic.mac1609_4 	totalBusyTime 	0.000696
scalar MyScenario.node[72].veinsmobility 	startTime 	1
scalar MyScenario.node[72].veinsmobility 	totalTime 	51
scalar MyScenario.node[72].veinsmobility 	stopTime 	53
scalar MyScenario.node[72].veinsmobility 	minSpeed 	0.0029998539549885
scalar MyScenario.node[72].veinsmobility 	maxSpeed 	13.739073006529
scalar MyScenario.node[72].veinsmobility 	totalDistance 	465.73928744647
scalar MyScenario.node[72].veinsmobility 	totalCO2Emission 	171.54437458408
scalar MyScenario.node[91].appl 	generatedWSMs 	0
scalar MyScenario.node[91].appl 	receivedWSMs 	0
scalar MyScenario.node[91].appl 	generatedBSMs 	0
scalar MyScenario.node[91].appl 	receivedBSMs 	0
scalar MyScenario.node[91].appl 	generatedWSAs 	0
scalar MyScenario.node[91].appl 	receivedWSAs 	0
scalar MyScenario.node[91].nic.phy80211p 	busyTime 	0
scalar MyScenario.node[91].nic.mac1609_4 	ReceivedUnicastPackets 	0
scalar MyScenario.node[91].nic.mac1609_4 	ReceivedBroadcasts 	0
scalar MyScenario.node[91].nic.mac1609_4 	SentPackets 	0
scalar MyScenario.node[91].nic.mac1609_4 	SNIRLostPackets 	0
scalar MyScenario.node[91].nic.mac1609_4 	RXTXLostPackets 	0
scalar MyScenario.node[91].nic.mac1609_4 	TotalLostPackets 	0
scalar MyScenario.node[91].nic.mac1609_4 	DroppedPacketsInMac 	0
scalar MyScenario.node[91].nic.mac1609_4 	TooLittleTime 	0
scalar MyScenario.node[91].nic.mac1609_4 	TimesIntoBackoff 	0
scalar MyScenario.node[91].nic.mac1609_4 	SlotsBackoff 	0
scalar MyScenario.node[91].nic.mac1609_4 	NumInternalContention 	0
scalar MyScenario.node[91].nic.mac1609_4 	totalBusyTime 	0
scalar MyScenario.node[91].veinsmobility 	startTime 	1
scalar MyScenario.node[91].veinsmobility 	totalTime 	51
scalar MyScenario.node[91].veinsmobility 	stopTime 	53
scalar MyScenario.node[91].veinsmobility 	minSpeed 	2.366979584028
scalar MyScenario.node[91].veinsmobility 	maxSpeed 	13.882393369055
scalar MyScenario.node[91].veinsmobility 	totalDistance 	556.76149176144
scalar MyScenario.node[91].veinsmobility 	totalCO2Emission 	185.13497187496
scalar MyScenario.node[171].appl 	generatedWSMs 	1
scalar MyScenario.node[171].appl 	receivedWSMs 	7
scalar MyScenario.node[171].appl 	generatedBSMs 	0
scalar MyScenario.node[171].appl 	receivedBSMs 	0
scalar MyScenario.node[171].appl 	generatedWSAs 	0
scalar MyScenario.node[171].appl 	receivedWSAs 	0
scalar MyScenario.node[171].nic.phy80211p 	busyTime 	0.00015615384615385
scalar MyScenario.node[171].nic.mac1609_4 	ReceivedUnicastPackets 	0
scalar MyScenario.node[171].nic.mac1609_4 	ReceivedBroadcasts 	7
scalar MyScenario.node[171].nic.mac1609_4 	SentPackets 	1
scalar MyScenario.node[171].nic.mac1609_4 	SNIRLostPackets 	28
scalar MyScenario.node[171].nic.mac1609_4 	RXTXLostPackets 	0
scalar MyScenario.node[171].nic.mac1609_4 	TotalLostPackets 	28
scalar MyScenario.node[171].nic.mac1609_4 	DroppedPacketsInMac 	0
scalar MyScenario.node[171].nic.mac1609_4 	TooLittleTime 	0
scalar MyScenario.node[171].nic.mac1609_4 	TimesIntoBackoff 	1
scalar MyScenario.node[171].nic.mac1609_4 	SlotsBackoff 	3
scalar MyScenario.node[171].nic.mac1609_4 	NumInternalContention 	0
scalar MyScenario.node[171].nic.mac1609_4 	totalBusyTime 	0.003713
scalar MyScenario.node[171].veinsmobility 	startTime 	1
scalar MyScenario.node[171].veinsmobility 	totalTime 	51
scalar MyScenario.node[171].veinsmobility 	stopTime 	53
scalar MyScenario.node[171].veinsmobility 	minSpeed 	0.019787502799846
scalar MyScenario.node[171].veinsmobility 	maxSpeed 	13.784904949646
scalar MyScenario.node[171].veinsmobility 	totalDistance 	457.75489526886
scalar MyScenario.node[171].veinsmobility 	totalCO2Emission 	157.74121822297
scalar MyScenario.node[168].appl 	generatedWSMs 	0
scalar MyScenario.node[168].appl 	receivedWSMs 	0
scalar MyScenario.node[168].appl 	generatedBSMs 	0
scalar MyScenario.node[168].appl 	receivedBSMs 	0
scalar MyScenario.node[168].appl 	generatedWSAs 	0
scalar MyScenario.node[168].appl 	receivedWSAs 	0
scalar MyScenario.node[168].nic.phy80211p 	busyTime 	8.7547169811321e-06
scalar MyScenario.node[168].nic.mac1609_4 	ReceivedUnicastPackets 	0
scalar MyScenario.node[168].nic.mac1609_4 	ReceivedBroadcasts 	0
scalar MyScenario.node[168].nic.mac1609_4 	SentPackets 	0
scalar MyScenario.node[168].nic.mac1609_4 	SNIRLostPackets 	2
scalar MyScenario.node[168].nic.mac1609_4 	RXTXLostPackets 	0
scalar MyScenario.node[168].nic.mac1609_4 	TotalLostPackets 	2
scalar MyScenario.node[168].nic.mac1609_4 	DroppedPacketsInMac 	0
scalar MyScenario.node[168].nic.mac1609_4 	TooLittleTime 	0
scalar MyScenario.node[168].nic.mac1609_4 	TimesIntoBackoff 	0
scalar MyScenario.node[168].nic.mac1609_4 	SlotsBackoff 	0
scalar MyScenario.node[168].nic.mac1609_4 	NumInternalContention 	0
scalar MyScenario.node[168].nic.mac1609_4 	totalBusyTime 	0.000232
scalar MyScenario.node[168].veinsmobility 	startTime 	1
scalar MyScenario.node[168].veinsmobility 	totalTime 	52
scalar MyScenario.node[168].veinsmobility 	stopTime 	54
scalar MyScenario.node[168].veinsmobility 	minSpeed 	0.026345412681408
scalar MyScenario.node[168].veinsmobility 	maxSpeed 	13.894169090269
scalar MyScenario.node[168].veinsmobility 	totalDistance 	461.96927189849
scalar MyScenario.node[168].veinsmobility 	totalCO2Emission 	185.73366955914
scalar MyScenario.node[79].appl 	generatedWSMs 	0
scalar MyScenario.node[79].appl 	receivedWSMs 	0
scalar MyScenario.node[79].appl 	generatedBSMs 	0
scalar MyScenario.node[79].appl 	receivedBSMs 	0
scalar MyScenario.node[79].appl 	generatedWSAs 	0
scalar MyScenario.node[79].appl 	receivedWSAs 	0
scalar MyScenario.node[79].nic.phy80211p 	busyTime 	0
scalar MyScenario.node[79].nic.mac1609_4 	ReceivedUnicastPackets 	0
scalar MyScenario.node[79].nic.mac1609_4 	ReceivedBroadcasts 	0
scalar MyScenario.node[79].nic.mac1609_4 	SentPackets 	0
scalar MyScenario.node[79].nic.mac1609_4 	SNIRLostPackets 	0
scalar MyScenario.node[79].nic.mac1609_4 	RXTXLostPackets 	0
scalar MyScenario.node[79].nic.mac1609_4 	TotalLostPackets 	0
scalar MyScenario.node[79].nic.mac1609_4 	DroppedPacketsInMac 	0
scalar MyScenario.node[79].nic.mac1609_4 	TooLittleTime 	0
scalar MyScenario.node[79].nic.mac1609_4 	TimesIntoBackoff 	0
scalar MyScenario.node[79].nic.mac1609_4 	SlotsBackoff 	0
scalar MyScenario.node[79].nic.mac1609_4 	NumInternalContention 	0
scalar MyScenario.node[79].nic.mac1609_4 	totalBusyTime 	0
scalar MyScenario.node[79].veinsmobility 	startTime 	1
scalar MyScenario.node[79].veinsmobility 	totalTime 	52
scalar MyScenario.node[79].veinsmobility 	stopTime 	54
scalar MyScenario.node[79].veinsmobility 	minSpeed 	2.2049729125109
scalar MyScenario.node[79].veinsmobility 	maxSpeed 	13.71902742323
scalar MyScenario.node[79].veinsmobility 	totalDistance 	552.86113291823
scalar MyScenario.node[79].veinsmobility 	totalCO2Emission 	160.34089058634
scalar MyScenario.node[92].appl 	generatedWSMs 	0
scalar MyScenario.node[92].appl 	receivedWSMs 	0
scalar MyScenario.node[92].appl 	generatedBSMs 	0
scalar MyScenario.node[92].appl 	receivedBSMs 	0
scalar MyScenario.node[92].appl 	generatedWSAs 	0
scalar MyScenario.node[92].appl 	receivedWSAs 	0
scalar MyScenario.node[92].nic.phy80211p 	busyTime 	0.00011818867924528
scalar MyScenario.node[92].nic.mac1609_4 	ReceivedUnicastPackets 	0
scalar MyScenario.node[92].nic.mac1609_4 	ReceivedBroadcasts 	0
scalar MyScenario.node[92].nic.mac1609_4 	SentPackets 	0
scalar MyScenario.node[92].nic.mac1609_4 	SNIRLostPackets 	27
scalar MyScenario.node[92].nic.mac1609_4 	RXTXLostPackets 	0
scalar MyScenario.node[92].nic.mac1609_4 	TotalLostPackets 	27
scalar MyScenario.node[92].nic.mac1609_4 	DroppedPacketsInMac 	0
scalar MyScenario.node[92].nic.mac1609_4 	TooLittleTime 	0
scalar MyScenario.node[92].nic.mac1609_4 	TimesIntoBackoff 	0
scalar MyScenario.node[92].nic.mac1609_4 	SlotsBackoff 	0
scalar MyScenario.node[92].nic.mac1609_4 	NumInternalContention 	0
scalar MyScenario.node[92].nic.mac1609_4 	totalBusyTime 	0.001160009474
scalar MyScenario.node[92].veinsmobility 	startTime 	1
scalar MyScenario.node[92].veinsmobility 	totalTime 	52
scalar MyScenario.node[92].veinsmobility 	stopTime 	54
scalar MyScenario.node[92].veinsmobility 	minSpeed 	0.6453068045519
scalar MyScenario.node[92].veinsmobility 	maxSpeed 	13.899528604909
scalar MyScenario.node[92].veinsmobility 	totalDistance 	561.3822028214
scalar MyScenario.node[92].veinsmobility 	totalCO2Emission 	164.80379260155
scalar MyScenario.node[194].appl 	generatedWSMs 	1
scalar MyScenario.node[194].appl 	receivedWSMs 	8
scalar MyScenario.node[194].appl 	generatedBSMs 	0
scalar MyScenario.node[194].appl 	receivedBSMs 	0
scalar MyScenario.node[194].appl 	generatedWSAs 	0
scalar MyScenario.node[194].appl 	receivedWSAs 	0
scalar MyScenario.node[194].nic.phy80211p 	busyTime 	0.00015320754716981
scalar MyScenario.node[194].nic.mac1609_4 	ReceivedUnicastPackets 	0
scalar MyScenario.node[194].nic.mac1609_4 	ReceivedBroadcasts 	8
scalar MyScenario.node[194].nic.mac1609_4 	SentPackets 	1
scalar MyScenario.node[194].nic.mac1609_4 	SNIRLostPackets 	27
scalar MyScenario.node[194].nic.mac1609_4 	RXTXLostPackets 	2
scalar MyScenario.node[194].nic.mac1609_4 	TotalLostPackets 	29
scalar MyScenario.node[194].nic.mac1609_4 	DroppedPacketsInMac 	0
scalar MyScenario.node[194].nic.mac1609_4 	TooLittleTime 	0
scalar MyScenario.node[194].nic.mac1609_4 	TimesIntoBackoff 	1
scalar MyScenario.node[194].nic.mac1609_4 	SlotsBackoff 	1
scalar MyScenario.node[194].nic.mac1609_4 	NumInternalContention 	0
scalar MyScenario.node[194].nic.mac1609_4 	totalBusyTime 	0.004409
scalar MyScenario.node[194].veinsmobility 	startTime 	1
scalar MyScenario.node[194].veinsmobility 	totalTime 	52
scalar MyScenario.node[194].veinsmobility 	stopTime 	54
scalar MyScenario.node[194].veinsmobility 	minSpeed 	0.082595737479516
scalar MyScenario.node[194].veinsmobility 	maxSpeed 	13.880754864728
scalar MyScenario.node[194].veinsmobility 	totalDistance 	478.42433462303
scalar MyScenario.node[194].veinsmobility 	totalCO2Emission 	173.23836437753
scalar MyScenario.node[96].appl 	generatedWSMs 	1
scalar MyScenario.node[96].appl 	receivedWSMs 	10
scalar MyScenario.node[96].appl 	generatedBSMs 	0
scalar MyScenario.node[96].appl 	receivedBSMs 	0
scalar MyScenario.node[96].appl 	generatedWSAs 	0
scalar MyScenario.node[96].appl 	receivedWSAs 	0
scalar MyScenario.node[96].nic.phy80211p 	busyTime 	0.00024075471698113
[...]
scalar MyScenario.node[197].nic.mac1609_4 	TooLittleTime 	0
scalar MyScenario.node[197].nic.mac1609_4 	TimesIntoBackoff 	1
scalar MyScenario.node[197].nic.mac1609_4 	SlotsBackoff 	2
scalar MyScenario.node[197].nic.mac1609_4 	NumInternalContention 	0
scalar MyScenario.node[197].nic.mac1609_4 	totalBusyTime 	0.006497000148
scalar MyScenario.node[197].veinsmobility 	startTime 	1
scalar MyScenario.node[197].veinsmobility 	totalTime 	149
scalar MyScenario.node[197].veinsmobility 	stopTime 	151
scalar MyScenario.node[197].veinsmobility 	minSpeed 	3.4266027047286e-09
scalar MyScenario.node[197].veinsmobility 	maxSpeed 	13.861307140393
scalar MyScenario.node[197].veinsmobility 	totalDistance 	1346.2218822488
scalar MyScenario.node[197].veinsmobility 	totalCO2Emission 	473.87973506217
scalar MyScenario.node[223].appl 	generatedWSMs 	1
scalar MyScenario.node[223].appl 	receivedWSMs 	3
scalar MyScenario.node[223].appl 	generatedBSMs 	0
scalar MyScenario.node[223].appl 	receivedBSMs 	0
scalar MyScenario.node[223].appl 	generatedWSAs 	0
scalar MyScenario.node[223].appl 	receivedWSAs 	0
scalar MyScenario.node[223].nic.phy80211p 	busyTime 	1.4108108108108e-05
scalar MyScenario.node[223].nic.mac1609_4 	ReceivedUnicastPackets 	0
scalar MyScenario.node[223].nic.mac1609_4 	ReceivedBroadcasts 	3
scalar MyScenario.node[223].nic.mac1609_4 	SentPackets 	1
scalar MyScenario.node[223].nic.mac1609_4 	SNIRLostPackets 	6
scalar MyScenario.node[223].nic.mac1609_4 	RXTXLostPackets 	5
scalar MyScenario.node[223].nic.mac1609_4 	TotalLostPackets 	11
scalar MyScenario.node[223].nic.mac1609_4 	DroppedPacketsInMac 	0
scalar MyScenario.node[223].nic.mac1609_4 	TooLittleTime 	0
scalar MyScenario.node[223].nic.mac1609_4 	TimesIntoBackoff 	1
scalar MyScenario.node[223].nic.mac1609_4 	SlotsBackoff 	3
scalar MyScenario.node[223].nic.mac1609_4 	NumInternalContention 	0
scalar MyScenario.node[223].nic.mac1609_4 	totalBusyTime 	0.001625034168
scalar MyScenario.node[223].veinsmobility 	startTime 	4
scalar MyScenario.node[223].veinsmobility 	totalTime 	147
scalar MyScenario.node[223].veinsmobility 	stopTime 	152
scalar MyScenario.node[223].veinsmobility 	minSpeed 	0.11533193442749
scalar MyScenario.node[223].veinsmobility 	maxSpeed 	13.877254422056
scalar MyScenario.node[223].veinsmobility 	totalDistance 	1572.8081908829
scalar MyScenario.node[223].veinsmobility 	totalCO2Emission 	432.01174615446
scalar MyScenario.node[89].appl 	generatedWSMs 	0
scalar MyScenario.node[89].appl 	receivedWSMs 	0
scalar MyScenario.node[89].appl 	generatedBSMs 	0
scalar MyScenario.node[89].appl 	receivedBSMs 	0
scalar MyScenario.node[89].appl 	generatedWSAs 	0
scalar MyScenario.node[89].appl 	receivedWSAs 	0
scalar MyScenario.node[89].nic.phy80211p 	busyTime 	1.9842105263158e-05
scalar MyScenario.node[89].nic.mac1609_4 	ReceivedUnicastPackets 	0
scalar MyScenario.node[89].nic.mac1609_4 	ReceivedBroadcasts 	0
scalar MyScenario.node[89].nic.mac1609_4 	SentPackets 	0
scalar MyScenario.node[89].nic.mac1609_4 	SNIRLostPackets 	13
scalar MyScenario.node[89].nic.mac1609_4 	RXTXLostPackets 	0
scalar MyScenario.node[89].nic.mac1609_4 	TotalLostPackets 	13
scalar MyScenario.node[89].nic.mac1609_4 	DroppedPacketsInMac 	0
scalar MyScenario.node[89].nic.mac1609_4 	TooLittleTime 	0
scalar MyScenario.node[89].nic.mac1609_4 	TimesIntoBackoff 	0
scalar MyScenario.node[89].nic.mac1609_4 	SlotsBackoff 	0
scalar MyScenario.node[89].nic.mac1609_4 	NumInternalContention 	0
scalar MyScenario.node[89].nic.mac1609_4 	totalBusyTime 	0.000928
scalar MyScenario.node[89].veinsmobility 	startTime 	1
scalar MyScenario.node[89].veinsmobility 	totalTime 	151
scalar MyScenario.node[89].veinsmobility 	stopTime 	153
scalar MyScenario.node[89].veinsmobility 	minSpeed 	1.046895493849e-08
scalar MyScenario.node[89].veinsmobility 	maxSpeed 	13.888753765402
scalar MyScenario.node[89].veinsmobility 	totalDistance 	1581.1132200618
scalar MyScenario.node[89].veinsmobility 	totalCO2Emission 	454.81821629208
scalar MyScenario.node[156].appl 	generatedWSMs 	1
scalar MyScenario.node[156].appl 	receivedWSMs 	13
scalar MyScenario.node[156].appl 	generatedBSMs 	0
scalar MyScenario.node[156].appl 	receivedBSMs 	0
scalar MyScenario.node[156].appl 	generatedWSAs 	0
scalar MyScenario.node[156].appl 	receivedWSAs 	0
scalar MyScenario.node[156].nic.phy80211p 	busyTime 	5.1555555555556e-05
scalar MyScenario.node[156].nic.mac1609_4 	ReceivedUnicastPackets 	0
scalar MyScenario.node[156].nic.mac1609_4 	ReceivedBroadcasts 	13
scalar MyScenario.node[156].nic.mac1609_4 	SentPackets 	1
scalar MyScenario.node[156].nic.mac1609_4 	SNIRLostPackets 	21
scalar MyScenario.node[156].nic.mac1609_4 	RXTXLostPackets 	12
scalar MyScenario.node[156].nic.mac1609_4 	TotalLostPackets 	33
scalar MyScenario.node[156].nic.mac1609_4 	DroppedPacketsInMac 	0
scalar MyScenario.node[156].nic.mac1609_4 	TooLittleTime 	0
scalar MyScenario.node[156].nic.mac1609_4 	TimesIntoBackoff 	1
scalar MyScenario.node[156].nic.mac1609_4 	SlotsBackoff 	2
scalar MyScenario.node[156].nic.mac1609_4 	NumInternalContention 	0
scalar MyScenario.node[156].nic.mac1609_4 	totalBusyTime 	0.005569052116
scalar MyScenario.node[156].veinsmobility 	startTime 	1
scalar MyScenario.node[156].veinsmobility 	totalTime 	152
scalar MyScenario.node[156].veinsmobility 	stopTime 	154
scalar MyScenario.node[156].veinsmobility 	minSpeed 	8.9548425025708e-05
scalar MyScenario.node[156].veinsmobility 	maxSpeed 	13.867049375223
scalar MyScenario.node[156].veinsmobility 	totalDistance 	1276.3542489305
scalar MyScenario.node[156].veinsmobility 	totalCO2Emission 	456.73132374468
scalar MyScenario.node[263].appl 	generatedWSMs 	1
scalar MyScenario.node[263].appl 	receivedWSMs 	1
scalar MyScenario.node[263].appl 	generatedBSMs 	0
scalar MyScenario.node[263].appl 	receivedBSMs 	0
scalar MyScenario.node[263].appl 	generatedWSAs 	0
scalar MyScenario.node[263].appl 	receivedWSAs 	0
scalar MyScenario.node[263].nic.phy80211p 	busyTime 	7.682119205298e-06
scalar MyScenario.node[263].nic.mac1609_4 	ReceivedUnicastPackets 	0
scalar MyScenario.node[263].nic.mac1609_4 	ReceivedBroadcasts 	1
scalar MyScenario.node[263].nic.mac1609_4 	SentPackets 	1
scalar MyScenario.node[263].nic.mac1609_4 	SNIRLostPackets 	4
scalar MyScenario.node[263].nic.mac1609_4 	RXTXLostPackets 	4
scalar MyScenario.node[263].nic.mac1609_4 	TotalLostPackets 	8
scalar MyScenario.node[263].nic.mac1609_4 	DroppedPacketsInMac 	0
scalar MyScenario.node[263].nic.mac1609_4 	TooLittleTime 	0
scalar MyScenario.node[263].nic.mac1609_4 	TimesIntoBackoff 	1
scalar MyScenario.node[263].nic.mac1609_4 	SlotsBackoff 	1
scalar MyScenario.node[263].nic.mac1609_4 	NumInternalContention 	0
scalar MyScenario.node[263].nic.mac1609_4 	totalBusyTime 	0.001161
scalar MyScenario.node[263].veinsmobility 	startTime 	4
scalar MyScenario.node[263].veinsmobility 	totalTime 	150
scalar MyScenario.node[263].veinsmobility 	stopTime 	155
scalar MyScenario.node[263].veinsmobility 	minSpeed 	0.0032702980357399
scalar MyScenario.node[263].veinsmobility 	maxSpeed 	13.889623276796
scalar MyScenario.node[263].veinsmobility 	totalDistance 	1683.860988441
scalar MyScenario.node[263].veinsmobility 	totalCO2Emission 	468.16192418613
scalar MyScenario.node[17].appl 	generatedWSMs 	1
scalar MyScenario.node[17].appl 	receivedWSMs 	8
scalar MyScenario.node[17].appl 	generatedBSMs 	0
scalar MyScenario.node[17].appl 	receivedBSMs 	0
scalar MyScenario.node[17].appl 	generatedWSAs 	0
scalar MyScenario.node[17].appl 	receivedWSAs 	0
scalar MyScenario.node[17].nic.phy80211p 	busyTime 	1.74e-05
scalar MyScenario.node[17].nic.mac1609_4 	ReceivedUnicastPackets 	0
scalar MyScenario.node[17].nic.mac1609_4 	ReceivedBroadcasts 	8
scalar MyScenario.node[17].nic.mac1609_4 	SentPackets 	1
scalar MyScenario.node[17].nic.mac1609_4 	SNIRLostPackets 	4
scalar MyScenario.node[17].nic.mac1609_4 	RXTXLostPackets 	4
scalar MyScenario.node[17].nic.mac1609_4 	TotalLostPackets 	8
scalar MyScenario.node[17].nic.mac1609_4 	DroppedPacketsInMac 	0
scalar MyScenario.node[17].nic.mac1609_4 	TooLittleTime 	0
scalar MyScenario.node[17].nic.mac1609_4 	TimesIntoBackoff 	1
scalar MyScenario.node[17].nic.mac1609_4 	SlotsBackoff 	3
scalar MyScenario.node[17].nic.mac1609_4 	NumInternalContention 	0
scalar MyScenario.node[17].nic.mac1609_4 	totalBusyTime 	0.002785
scalar MyScenario.node[17].veinsmobility 	startTime 	1
scalar MyScenario.node[17].veinsmobility 	totalTime 	159
scalar MyScenario.node[17].veinsmobility 	stopTime 	161
scalar MyScenario.node[17].veinsmobility 	minSpeed 	2.4785940402402e-15
scalar MyScenario.node[17].veinsmobility 	maxSpeed 	13.898774191155
scalar MyScenario.node[17].veinsmobility 	totalDistance 	1380.4383157946
scalar MyScenario.node[17].veinsmobility 	totalCO2Emission 	468.88773591879
scalar MyScenario.node[241].appl 	generatedWSMs 	1
scalar MyScenario.node[241].appl 	receivedWSMs 	9
scalar MyScenario.node[241].appl 	generatedBSMs 	0
scalar MyScenario.node[241].appl 	receivedBSMs 	0
scalar MyScenario.node[241].appl 	generatedWSAs 	0
scalar MyScenario.node[241].appl 	receivedWSAs 	0
scalar MyScenario.node[241].nic.phy80211p 	busyTime 	3.335e-05
scalar MyScenario.node[241].nic.mac1609_4 	ReceivedUnicastPackets 	0
scalar MyScenario.node[241].nic.mac1609_4 	ReceivedBroadcasts 	9
scalar MyScenario.node[241].nic.mac1609_4 	SentPackets 	1
scalar MyScenario.node[241].nic.mac1609_4 	SNIRLostPackets 	14
scalar MyScenario.node[241].nic.mac1609_4 	RXTXLostPackets 	6
scalar MyScenario.node[241].nic.mac1609_4 	TotalLostPackets 	20
scalar MyScenario.node[241].nic.mac1609_4 	DroppedPacketsInMac 	0
scalar MyScenario.node[241].nic.mac1609_4 	TooLittleTime 	0
scalar MyScenario.node[241].nic.mac1609_4 	TimesIntoBackoff 	1
scalar MyScenario.node[241].nic.mac1609_4 	SlotsBackoff 	3
scalar MyScenario.node[241].nic.mac1609_4 	NumInternalContention 	0
scalar MyScenario.node[241].nic.mac1609_4 	totalBusyTime 	0.003249141777
scalar MyScenario.node[241].veinsmobility 	startTime 	4
scalar MyScenario.node[241].veinsmobility 	totalTime 	159
scalar MyScenario.node[241].veinsmobility 	stopTime 	164
scalar MyScenario.node[241].veinsmobility 	minSpeed 	0.00031976864759695
scalar MyScenario.node[241].veinsmobility 	maxSpeed 	13.847140547214
scalar MyScenario.node[241].veinsmobility 	totalDistance 	1167.757919199
scalar MyScenario.node[241].veinsmobility 	totalCO2Emission 	449.55662896481
scalar MyScenario.node[271].appl 	generatedWSMs 	1
scalar MyScenario.node[271].appl 	receivedWSMs 	10
scalar MyScenario.node[271].appl 	generatedBSMs 	0
scalar MyScenario.node[271].appl 	receivedBSMs 	0
scalar MyScenario.node[271].appl 	generatedWSAs 	0
scalar MyScenario.node[271].appl 	receivedWSAs 	0
scalar MyScenario.node[271].nic.phy80211p 	busyTime 	4.3587878787879e-05
scalar MyScenario.node[271].nic.mac1609_4 	ReceivedUnicastPackets 	0
scalar MyScenario.node[271].nic.mac1609_4 	ReceivedBroadcasts 	10
scalar MyScenario.node[271].nic.mac1609_4 	SentPackets 	1
scalar MyScenario.node[271].nic.mac1609_4 	SNIRLostPackets 	21
scalar MyScenario.node[271].nic.mac1609_4 	RXTXLostPackets 	12
scalar MyScenario.node[271].nic.mac1609_4 	TotalLostPackets 	33
scalar MyScenario.node[271].nic.mac1609_4 	DroppedPacketsInMac 	0
scalar MyScenario.node[271].nic.mac1609_4 	TooLittleTime 	0
scalar MyScenario.node[271].nic.mac1609_4 	TimesIntoBackoff 	1
scalar MyScenario.node[271].nic.mac1609_4 	SlotsBackoff 	3
scalar MyScenario.node[271].nic.mac1609_4 	NumInternalContention 	0
scalar MyScenario.node[271].nic.mac1609_4 	totalBusyTime 	0.004409039609
scalar MyScenario.node[271].veinsmobility 	startTime 	4
scalar MyScenario.node[271].veinsmobility 	totalTime 	164
scalar MyScenario.node[271].veinsmobility 	stopTime 	169
scalar MyScenario.node[271].veinsmobility 	minSpeed 	2.6397461646893e-08
scalar MyScenario.node[271].veinsmobility 	maxSpeed 	13.861505246768
scalar MyScenario.node[271].veinsmobility 	totalDistance 	1354.7498280269
scalar MyScenario.node[271].veinsmobility 	totalCO2Emission 	481.54098965183
scalar MyScenario.node[287].appl 	generatedWSMs 	1
scalar MyScenario.node[287].appl 	receivedWSMs 	9
scalar MyScenario.node[287].appl 	generatedBSMs 	0
scalar MyScenario.node[287].appl 	receivedBSMs 	0
scalar MyScenario.node[287].appl 	generatedWSAs 	0
scalar MyScenario.node[287].appl 	receivedWSAs 	0
scalar MyScenario.node[287].nic.phy80211p 	busyTime 	2.9889570552147e-05
scalar MyScenario.node[287].nic.mac1609_4 	ReceivedUnicastPackets 	0
scalar MyScenario.node[287].nic.mac1609_4 	ReceivedBroadcasts 	9
scalar MyScenario.node[287].nic.mac1609_4 	SentPackets 	1
scalar MyScenario.node[287].nic.mac1609_4 	SNIRLostPackets 	12
scalar MyScenario.node[287].nic.mac1609_4 	RXTXLostPackets 	6
scalar MyScenario.node[287].nic.mac1609_4 	TotalLostPackets 	18
scalar MyScenario.node[287].nic.mac1609_4 	DroppedPacketsInMac 	0
scalar MyScenario.node[287].nic.mac1609_4 	TooLittleTime 	0
scalar MyScenario.node[287].nic.mac1609_4 	TimesIntoBackoff 	1
scalar MyScenario.node[287].nic.mac1609_4 	SlotsBackoff 	1
scalar MyScenario.node[287].nic.mac1609_4 	NumInternalContention 	0
scalar MyScenario.node[287].nic.mac1609_4 	totalBusyTime 	0.003017183815
scalar MyScenario.node[287].veinsmobility 	startTime 	7
scalar MyScenario.node[287].veinsmobility 	totalTime 	162
scalar MyScenario.node[287].veinsmobility 	stopTime 	170
scalar MyScenario.node[287].veinsmobility 	minSpeed 	0.0012777026879987
scalar MyScenario.node[287].veinsmobility 	maxSpeed 	13.850306153344
scalar MyScenario.node[287].veinsmobility 	totalDistance 	1173.3792954418
scalar MyScenario.node[287].veinsmobility 	totalCO2Emission 	464.64661375112
scalar MyScenario.node[196].appl 	generatedWSMs 	1
scalar MyScenario.node[196].appl 	receivedWSMs 	5
scalar MyScenario.node[196].appl 	generatedBSMs 	0
scalar MyScenario.node[196].appl 	receivedBSMs 	0
scalar MyScenario.node[196].appl 	generatedWSAs 	0
scalar MyScenario.node[196].appl 	receivedWSAs 	0
scalar MyScenario.node[196].nic.phy80211p 	busyTime 	3.0201183431953e-05
scalar MyScenario.node[196].nic.mac1609_4 	ReceivedUnicastPackets 	0
scalar MyScenario.node[196].nic.mac1609_4 	ReceivedBroadcasts 	5
scalar MyScenario.node[196].nic.mac1609_4 	SentPackets 	1
scalar MyScenario.node[196].nic.mac1609_4 	SNIRLostPackets 	17
scalar MyScenario.node[196].nic.mac1609_4 	RXTXLostPackets 	5
scalar MyScenario.node[196].nic.mac1609_4 	TotalLostPackets 	22
scalar MyScenario.node[196].nic.mac1609_4 	DroppedPacketsInMac 	0
scalar MyScenario.node[196].nic.mac1609_4 	TooLittleTime 	0
scalar MyScenario.node[196].nic.mac1609_4 	TimesIntoBackoff 	1
scalar MyScenario.node[196].nic.mac1609_4 	SlotsBackoff 	1
scalar MyScenario.node[196].nic.mac1609_4 	NumInternalContention 	0
scalar MyScenario.node[196].nic.mac1609_4 	totalBusyTime 	0.002553
scalar MyScenario.node[196].veinsmobility 	startTime 	1
scalar MyScenario.node[196].veinsmobility 	totalTime 	168
scalar MyScenario.node[196].veinsmobility 	stopTime 	170
scalar MyScenario.node[196].veinsmobility 	minSpeed 	2.1211517584132e-08
scalar MyScenario.node[196].veinsmobility 	maxSpeed 	13.883226248925
scalar MyScenario.node[196].veinsmobility 	totalDistance 	1360.2166636743
scalar MyScenario.node[196].veinsmobility 	totalCO2Emission 	499.839897804
scalar MyScenario.node[286].appl 	generatedWSMs 	1
scalar MyScenario.node[286].appl 	receivedWSMs 	22
scalar MyScenario.node[286].appl 	generatedBSMs 	0
scalar MyScenario.node[286].appl 	receivedBSMs 	0
scalar MyScenario.node[286].appl 	generatedWSAs 	0
scalar MyScenario.node[286].appl 	receivedWSAs 	0
scalar MyScenario.node[286].nic.phy80211p 	busyTime 	3.3951219512195e-05
scalar MyScenario.node[286].nic.mac1609_4 	ReceivedUnicastPackets 	0
scalar MyScenario.node[286].nic.mac1609_4 	ReceivedBroadcasts 	22
scalar MyScenario.node[286].nic.mac1609_4 	SentPackets 	1
scalar MyScenario.node[286].nic.mac1609_4 	SNIRLostPackets 	2
scalar MyScenario.node[286].nic.mac1609_4 	RXTXLostPackets 	1
scalar MyScenario.node[286].nic.mac1609_4 	TotalLostPackets 	3
scalar MyScenario.node[286].nic.mac1609_4 	DroppedPacketsInMac 	0
scalar MyScenario.node[286].nic.mac1609_4 	TooLittleTime 	0
scalar MyScenario.node[286].nic.mac1609_4 	TimesIntoBackoff 	1
scalar MyScenario.node[286].nic.mac1609_4 	SlotsBackoff 	0
scalar MyScenario.node[286].nic.mac1609_4 	NumInternalContention 	0
scalar MyScenario.node[286].nic.mac1609_4 	totalBusyTime 	0.005801
scalar MyScenario.node[286].veinsmobility 	startTime 	7
scalar MyScenario.node[286].veinsmobility 	totalTime 	163
scalar MyScenario.node[286].veinsmobility 	stopTime 	171
scalar MyScenario.node[286].veinsmobility 	minSpeed 	2.5002243518216e-15
scalar MyScenario.node[286].veinsmobility 	maxSpeed 	13.897323683091
scalar MyScenario.node[286].veinsmobility 	totalDistance 	1370.0622873317
scalar MyScenario.node[286].veinsmobility 	totalCO2Emission 	461.37689529984
scalar MyScenario.node[52].appl 	generatedWSMs 	1
scalar MyScenario.node[52].appl 	receivedWSMs 	3
scalar MyScenario.node[52].appl 	generatedBSMs 	0
scalar MyScenario.node[52].appl 	receivedBSMs 	0
scalar MyScenario.node[52].appl 	generatedWSAs 	0
scalar MyScenario.node[52].appl 	receivedWSAs 	0
scalar MyScenario.node[52].nic.phy80211p 	busyTime 	2.5929411764706e-05
scalar MyScenario.node[52].nic.mac1609_4 	ReceivedUnicastPackets 	0
scalar MyScenario.node[52].nic.mac1609_4 	ReceivedBroadcasts 	3
scalar MyScenario.node[52].nic.mac1609_4 	SentPackets 	1
scalar MyScenario.node[52].nic.mac1609_4 	SNIRLostPackets 	16
scalar MyScenario.node[52].nic.mac1609_4 	RXTXLostPackets 	6
scalar MyScenario.node[52].nic.mac1609_4 	TotalLostPackets 	22
scalar MyScenario.node[52].nic.mac1609_4 	DroppedPacketsInMac 	0
scalar MyScenario.node[52].nic.mac1609_4 	TooLittleTime 	0
scalar MyScenario.node[52].nic.mac1609_4 	TimesIntoBackoff 	1
scalar MyScenario.node[52].nic.mac1609_4 	SlotsBackoff 	1
scalar MyScenario.node[52].nic.mac1609_4 	NumInternalContention 	0
scalar MyScenario.node[52].nic.mac1609_4 	totalBusyTime 	0.00185716438
scalar MyScenario.node[52].veinsmobility 	startTime 	1
scalar MyScenario.node[52].veinsmobility 	totalTime 	169
scalar MyScenario.node[52].veinsmobility 	stopTime 	171
scalar MyScenario.node[52].veinsmobility 	minSpeed 	0.0014015001306002
scalar MyScenario.node[52].veinsmobility 	maxSpeed 	13.899671452539
scalar MyScenario.node[52].veinsmobility 	totalDistance 	1558.4132261473
scalar MyScenario.node[52].veinsmobility 	totalCO2Emission 	487.7334121105
scalar MyScenario.node[218].appl 	generatedWSMs 	1
scalar MyScenario.node[218].appl 	receivedWSMs 	6
scalar MyScenario.node[218].appl 	generatedBSMs 	0
scalar MyScenario.node[218].appl 	receivedBSMs 	0
scalar MyScenario.node[218].appl 	generatedWSAs 	0
scalar MyScenario.node[218].appl 	receivedWSAs 	0
scalar MyScenario.node[218].nic.phy80211p 	busyTime 	3.4523809523809e-05
scalar MyScenario.node[218].nic.mac1609_4 	ReceivedUnicastPackets 	0
scalar MyScenario.node[218].nic.mac1609_4 	ReceivedBroadcasts 	6
scalar MyScenario.node[218].nic.mac1609_4 	SentPackets 	1
scalar MyScenario.node[218].nic.mac1609_4 	SNIRLostPackets 	19
scalar MyScenario.node[218].nic.mac1609_4 	RXTXLostPackets 	1
scalar MyScenario.node[218].nic.mac1609_4 	TotalLostPackets 	20
scalar MyScenario.node[218].nic.mac1609_4 	DroppedPacketsInMac 	0
scalar MyScenario.node[218].nic.mac1609_4 	TooLittleTime 	0
scalar MyScenario.node[218].nic.mac1609_4 	TimesIntoBackoff 	1
scalar MyScenario.node[218].nic.mac1609_4 	SlotsBackoff 	2
scalar MyScenario.node[218].nic.mac1609_4 	NumInternalContention 	0
scalar MyScenario.node[218].nic.mac1609_4 	totalBusyTime 	0.002553
scalar MyScenario.node[218].veinsmobility 	startTime 	4
scalar MyScenario.node[218].veinsmobility 	totalTime 	167
scalar MyScenario.node[218].veinsmobility 	stopTime 	172
scalar MyScenario.node[218].veinsmobility 	minSpeed 	1.8215171041397e-10
scalar MyScenario.node[218].veinsmobility 	maxSpeed 	13.890121402149
scalar MyScenario.node[218].veinsmobility 	totalDistance 	1368.521346712
scalar MyScenario.node[218].veinsmobility 	totalCO2Emission 	460.59143150475
