version 2
run General-32-20170829-17:47:35-8100
attr configname General
attr datetime 20170829-17:47:35
attr density 400
attr experiment General
attr inifile omnetpp.ini
attr iterationvars $density=400
attr iterationvars2 "$density=400, $repetition=2"
attr measurement $density=400
attr network com.liborio.pi.MyScenario
attr processid 8100
attr repetition 2
attr replication #2
attr resultdir results
attr runnumber 32
attr seedset 2
param **.coreDebug false
param **.debug false
param *.**.nic.mac1609_4.bitrate 6Mbps
param *.**.nic.mac1609_4.txPower 20mW
param *.**.nic.mac1609_4.useServiceChannel true
param *.**.nic.phy80211p.analogueModels "xmldoc(\"config.xml\")"
param *.**.nic.phy80211p.antenna "xmldoc(\"antenna.xml\", \"/root/Antenna[@id='monopole']\")"
param *.**.nic.phy80211p.decider "xmldoc(\"config.xml\")"
param *.**.nic.phy80211p.sensitivity -84.39dBm
param *.**.nic.phy80211p.thermalNoise -110dBm
param *.**.nic.phy80211p.usePropagationDelay true
param *.**.nic.phy80211p.useThermalNoise true
param *.annotations.draw true
param *.connectionManager.drawMaxIntfDist false
param *.connectionManager.maxInterfDist 2600m
param *.connectionManager.sendDirect true
param *.manager.autoShutdown true
param *.manager.host "\"localhost\""
param *.manager.launchConfig "xmldoc(string(${density = 100, 200, 300, 400})+\"_\"+ string(${repetition})+\".launchd.xml\")"
param *.manager.port 9999
param *.manager.updateInterval 1s
param *.node[*].appl.beaconInterval 1s
param *.node[*].appl.dataOnSch true
param *.node[*].appl.headerLength "80 bit"
param *.node[*].appl.isSource false
param *.node[*].appl.numMsgs 100
param *.node[*].appl.sendBeacons false
param *.node[*].appl.stopTrafficTime 130s
param *.node[*].appl.wsmInterval 3s
param *.node[*].applType "\"Flooding\""
param *.node[*].veinsmobility.x 0
param *.node[*].veinsmobility.y 0
param *.node[*].veinsmobility.z 1.895
param *.node[*].veinsmobilityType.debug true
param *.node[0].appl.isSource true
param *.playgroundSizeX 2500m
param *.playgroundSizeY 2500m
param *.playgroundSizeZ 50m

scalar . 	density 	400
scalar MyScenario.node[14].appl 	generatedWSMs 	0
scalar MyScenario.node[14].appl 	receivedWSMs 	0
scalar MyScenario.node[14].appl 	generatedBSMs 	0
scalar MyScenario.node[14].appl 	receivedBSMs 	0
scalar MyScenario.node[14].appl 	generatedWSAs 	0
scalar MyScenario.node[14].appl 	receivedWSAs 	0
scalar MyScenario.node[14].nic.phy80211p 	busyTime 	0
scalar MyScenario.node[14].nic.mac1609_4 	ReceivedUnicastPackets 	0
scalar MyScenario.node[14].nic.mac1609_4 	ReceivedBroadcasts 	0
scalar MyScenario.node[14].nic.mac1609_4 	SentPackets 	0
scalar MyScenario.node[14].nic.mac1609_4 	SNIRLostPackets 	0
scalar MyScenario.node[14].nic.mac1609_4 	RXTXLostPackets 	0
scalar MyScenario.node[14].nic.mac1609_4 	TotalLostPackets 	0
scalar MyScenario.node[14].nic.mac1609_4 	DroppedPacketsInMac 	0
scalar MyScenario.node[14].nic.mac1609_4 	TooLittleTime 	0
scalar MyScenario.node[14].nic.mac1609_4 	TimesIntoBackoff 	0
scalar MyScenario.node[14].nic.mac1609_4 	SlotsBackoff 	0
scalar MyScenario.node[14].nic.mac1609_4 	NumInternalContention 	0
scalar MyScenario.node[14].nic.mac1609_4 	totalBusyTime 	0
scalar MyScenario.node[14].veinsmobility 	startTime 	1
scalar MyScenario.node[14].veinsmobility 	totalTime 	9
scalar MyScenario.node[14].veinsmobility 	stopTime 	11
scalar MyScenario.node[14].veinsmobility 	minSpeed 	1.6775892789476
scalar MyScenario.node[14].veinsmobility 	maxSpeed 	13.537969464646
scalar MyScenario.node[14].veinsmobility 	totalDistance 	79.080945153744
scalar MyScenario.node[14].veinsmobility 	totalCO2Emission 	38.720823296712
scalar MyScenario.node[176].appl 	generatedWSMs 	0
scalar MyScenario.node[176].appl 	receivedWSMs 	0
scalar MyScenario.node[176].appl 	generatedBSMs 	0
scalar MyScenario.node[176].appl 	receivedBSMs 	0
scalar MyScenario.node[176].appl 	generatedWSAs 	0
scalar MyScenario.node[176].appl 	receivedWSAs 	0
scalar MyScenario.node[176].nic.phy80211p 	busyTime 	2.32e-05
scalar MyScenario.node[176].nic.mac1609_4 	ReceivedUnicastPackets 	0
scalar MyScenario.node[176].nic.mac1609_4 	ReceivedBroadcasts 	0
scalar MyScenario.node[176].nic.mac1609_4 	SentPackets 	0
scalar MyScenario.node[176].nic.mac1609_4 	SNIRLostPackets 	1
scalar MyScenario.node[176].nic.mac1609_4 	RXTXLostPackets 	0
scalar MyScenario.node[176].nic.mac1609_4 	TotalLostPackets 	1
scalar MyScenario.node[176].nic.mac1609_4 	DroppedPacketsInMac 	0
scalar MyScenario.node[176].nic.mac1609_4 	TooLittleTime 	0
scalar MyScenario.node[176].nic.mac1609_4 	TimesIntoBackoff 	0
scalar MyScenario.node[176].nic.mac1609_4 	SlotsBackoff 	0
scalar MyScenario.node[176].nic.mac1609_4 	NumInternalContention 	0
scalar MyScenario.node[176].nic.mac1609_4 	totalBusyTime 	0.000232
scalar MyScenario.node[176].veinsmobility 	startTime 	1
scalar MyScenario.node[176].veinsmobility 	totalTime 	9
scalar MyScenario.node[176].veinsmobility 	stopTime 	11
scalar MyScenario.node[176].veinsmobility 	minSpeed 	1.5727849973831
scalar MyScenario.node[176].veinsmobility 	maxSpeed 	13.466749050166
scalar MyScenario.node[176].veinsmobility 	totalDistance 	80.639253538195
scalar MyScenario.node[176].veinsmobility 	totalCO2Emission 	37.106733917509
scalar MyScenario.node[117].appl 	generatedWSMs 	0
scalar MyScenario.node[117].appl 	receivedWSMs 	0
scalar MyScenario.node[117].appl 	generatedBSMs 	0
scalar MyScenario.node[117].appl 	receivedBSMs 	0
scalar MyScenario.node[117].appl 	generatedWSAs 	0
scalar MyScenario.node[117].appl 	receivedWSAs 	0
scalar MyScenario.node[117].nic.phy80211p 	busyTime 	0
scalar MyScenario.node[117].nic.mac1609_4 	ReceivedUnicastPackets 	0
scalar MyScenario.node[117].nic.mac1609_4 	ReceivedBroadcasts 	0
scalar MyScenario.node[117].nic.mac1609_4 	SentPackets 	0
scalar MyScenario.node[117].nic.mac1609_4 	SNIRLostPackets 	0
scalar MyScenario.node[117].nic.mac1609_4 	RXTXLostPackets 	0
scalar MyScenario.node[117].nic.mac1609_4 	TotalLostPackets 	0
scalar MyScenario.node[117].nic.mac1609_4 	DroppedPacketsInMac 	0
scalar MyScenario.node[117].nic.mac1609_4 	TooLittleTime 	0
scalar MyScenario.node[117].nic.mac1609_4 	TimesIntoBackoff 	0
scalar MyScenario.node[117].nic.mac1609_4 	SlotsBackoff 	0
scalar MyScenario.node[117].nic.mac1609_4 	NumInternalContention 	0
scalar MyScenario.node[117].nic.mac1609_4 	totalBusyTime 	0
scalar MyScenario.node[117].veinsmobility 	startTime 	1
scalar MyScenario.node[117].veinsmobility 	totalTime 	9
scalar MyScenario.node[117].veinsmobility 	stopTime 	11
scalar MyScenario.node[117].veinsmobility 	minSpeed 	2.4685874751071
scalar MyScenario.node[117].veinsmobility 	maxSpeed 	13.801669757743
scalar MyScenario.node[117].veinsmobility 	totalDistance 	86.912483889423
scalar MyScenario.node[117].veinsmobility 	totalCO2Emission 	38.895391209551
scalar MyScenario.node[217].appl 	generatedWSMs 	0
scalar MyScenario.node[217].appl 	receivedWSMs 	0
scalar MyScenario.node[217].appl 	generatedBSMs 	0
scalar MyScenario.node[217].appl 	receivedBSMs 	0
scalar MyScenario.node[217].appl 	generatedWSAs 	0
scalar MyScenario.node[217].appl 	receivedWSAs 	0
scalar MyScenario.node[217].nic.phy80211p 	busyTime 	0
scalar MyScenario.node[217].nic.mac1609_4 	ReceivedUnicastPackets 	0
scalar MyScenario.node[217].nic.mac1609_4 	ReceivedBroadcasts 	0
scalar MyScenario.node[217].nic.mac1609_4 	SentPackets 	0
scalar MyScenario.node[217].nic.mac1609_4 	SNIRLostPackets 	0
scalar MyScenario.node[217].nic.mac1609_4 	RXTXLostPackets 	0
scalar MyScenario.node[217].nic.mac1609_4 	TotalLostPackets 	0
scalar MyScenario.node[217].nic.mac1609_4 	DroppedPacketsInMac 	0
scalar MyScenario.node[217].nic.mac1609_4 	TooLittleTime 	0
scalar MyScenario.node[217].nic.mac1609_4 	TimesIntoBackoff 	0
scalar MyScenario.node[217].nic.mac1609_4 	SlotsBackoff 	0
scalar MyScenario.node[217].nic.mac1609_4 	NumInternalContention 	0
scalar MyScenario.node[217].nic.mac1609_4 	totalBusyTime 	0
scalar MyScenario.node[217].veinsmobility 	startTime 	1
scalar MyScenario.node[217].veinsmobility 	totalTime 	9
scalar MyScenario.node[217].veinsmobility 	stopTime 	11
scalar MyScenario.node[217].veinsmobility 	minSpeed 	1.6533807888161
scalar MyScenario.node[217].veinsmobility 	maxSpeed 	13.852694268804
scalar MyScenario.node[217].veinsmobility 	totalDistance 	80.942788136448
scalar MyScenario.node[217].veinsmobility 	totalCO2Emission 	39.320667327878
scalar MyScenario.node[56].appl 	generatedWSMs 	0
scalar MyScenario.node[56].appl 	receivedWSMs 	0
scalar MyScenario.node[56].appl 	generatedBSMs 	0
scalar MyScenario.node[56].appl 	receivedBSMs 	0
scalar MyScenario.node[56].appl 	generatedWSAs 	0
scalar MyScenario.node[56].appl 	receivedWSAs 	0
scalar MyScenario.node[56].nic.phy80211p 	busyTime 	0.000348
scalar MyScenario.node[56].nic.mac1609_4 	ReceivedUnicastPackets 	0
scalar MyScenario.node[56].nic.mac1609_4 	ReceivedBroadcasts 	0
scalar MyScenario.node[56].nic.mac1609_4 	SentPackets 	0
scalar MyScenario.node[56].nic.mac1609_4 	SNIRLostPackets 	15
scalar MyScenario.node[56].nic.mac1609_4 	RXTXLostPackets 	0
scalar MyScenario.node[56].nic.mac1609_4 	TotalLostPackets 	15
scalar MyScenario.node[56].nic.mac1609_4 	DroppedPacketsInMac 	0
scalar MyScenario.node[56].nic.mac1609_4 	TooLittleTime 	0
scalar MyScenario.node[56].nic.mac1609_4 	TimesIntoBackoff 	0
scalar MyScenario.node[56].nic.mac1609_4 	SlotsBackoff 	0
scalar MyScenario.node[56].nic.mac1609_4 	NumInternalContention 	0
scalar MyScenario.node[56].nic.mac1609_4 	totalBusyTime 	0.000696
scalar MyScenario.node[56].veinsmobility 	startTime 	1
scalar MyScenario.node[56].veinsmobility 	totalTime 	9
scalar MyScenario.node[56].veinsmobility 	stopTime 	11
scalar MyScenario.node[56].veinsmobility 	minSpeed 	2.466429000115
scalar MyScenario.node[56].veinsmobility 	maxSpeed 	13.44347957361
scalar MyScenario.node[56].veinsmobility 	totalDistance 	79.765832369193
scalar MyScenario.node[56].veinsmobility 	totalCO2Emission 	35.220487879907
scalar MyScenario.node[35].appl 	generatedWSMs 	1
scalar MyScenario.node[35].appl 	receivedWSMs 	1
scalar MyScenario.node[35].appl 	generatedBSMs 	0
scalar MyScenario.node[35].appl 	receivedBSMs 	0
scalar MyScenario.node[35].appl 	generatedWSAs 	0
scalar MyScenario.node[35].appl 	receivedWSAs 	0
scalar MyScenario.node[35].nic.phy80211p 	busyTime 	0.0001624
scalar MyScenario.node[35].nic.mac1609_4 	ReceivedUnicastPackets 	0
scalar MyScenario.node[35].nic.mac1609_4 	ReceivedBroadcasts 	1
scalar MyScenario.node[35].nic.mac1609_4 	SentPackets 	1
scalar MyScenario.node[35].nic.mac1609_4 	SNIRLostPackets 	6
scalar MyScenario.node[35].nic.mac1609_4 	RXTXLostPackets 	13
scalar MyScenario.node[35].nic.mac1609_4 	TotalLostPackets 	19
scalar MyScenario.node[35].nic.mac1609_4 	DroppedPacketsInMac 	0
scalar MyScenario.node[35].nic.mac1609_4 	TooLittleTime 	0
scalar MyScenario.node[35].nic.mac1609_4 	TimesIntoBackoff 	1
scalar MyScenario.node[35].nic.mac1609_4 	SlotsBackoff 	0
scalar MyScenario.node[35].nic.mac1609_4 	NumInternalContention 	0
scalar MyScenario.node[35].nic.mac1609_4 	totalBusyTime 	0.000697043315
scalar MyScenario.node[35].veinsmobility 	startTime 	1
scalar MyScenario.node[35].veinsmobility 	totalTime 	9
scalar MyScenario.node[35].veinsmobility 	stopTime 	11
scalar MyScenario.node[35].veinsmobility 	minSpeed 	2.3265910907881
scalar MyScenario.node[35].veinsmobility 	maxSpeed 	13.650640822318
scalar MyScenario.node[35].veinsmobility 	totalDistance 	84.316166624078
scalar MyScenario.node[35].veinsmobility 	totalCO2Emission 	37.382196807785
scalar MyScenario.node[126].appl 	generatedWSMs 	0
scalar MyScenario.node[126].appl 	receivedWSMs 	0
scalar MyScenario.node[126].appl 	generatedBSMs 	0
scalar MyScenario.node[126].appl 	receivedBSMs 	0
scalar MyScenario.node[126].appl 	generatedWSAs 	0
scalar MyScenario.node[126].appl 	receivedWSAs 	0
scalar MyScenario.node[126].nic.phy80211p 	busyTime 	6.96e-05
scalar MyScenario.node[126].nic.mac1609_4 	ReceivedUnicastPackets 	0
scalar MyScenario.node[126].nic.mac1609_4 	ReceivedBroadcasts 	0
scalar MyScenario.node[126].nic.mac1609_4 	SentPackets 	0
scalar MyScenario.node[126].nic.mac1609_4 	SNIRLostPackets 	3
scalar MyScenario.node[126].nic.mac1609_4 	RXTXLostPackets 	0
scalar MyScenario.node[126].nic.mac1609_4 	TotalLostPackets 	3
scalar MyScenario.node[126].nic.mac1609_4 	DroppedPacketsInMac 	0
scalar MyScenario.node[126].nic.mac1609_4 	TooLittleTime 	0
scalar MyScenario.node[126].nic.mac1609_4 	TimesIntoBackoff 	0
scalar MyScenario.node[126].nic.mac1609_4 	SlotsBackoff 	0
scalar MyScenario.node[126].nic.mac1609_4 	NumInternalContention 	0
scalar MyScenario.node[126].nic.mac1609_4 	totalBusyTime 	0.000232
scalar MyScenario.node[126].veinsmobility 	startTime 	1
scalar MyScenario.node[126].veinsmobility 	totalTime 	9
scalar MyScenario.node[126].veinsmobility 	stopTime 	11
scalar MyScenario.node[126].veinsmobility 	minSpeed 	2.5642811998259
scalar MyScenario.node[126].veinsmobility 	maxSpeed 	13.688247703598
scalar MyScenario.node[126].veinsmobility 	totalDistance 	84.720789440582
scalar MyScenario.node[126].veinsmobility 	totalCO2Emission 	37.962661656538
scalar MyScenario.node[111].appl 	generatedWSMs 	0
scalar MyScenario.node[111].appl 	receivedWSMs 	0
scalar MyScenario.node[111].appl 	generatedBSMs 	0
scalar MyScenario.node[111].appl 	receivedBSMs 	0
scalar MyScenario.node[111].appl 	generatedWSAs 	0
scalar MyScenario.node[111].appl 	receivedWSAs 	0
scalar MyScenario.node[111].nic.phy80211p 	busyTime 	0
scalar MyScenario.node[111].nic.mac1609_4 	ReceivedUnicastPackets 	0
scalar MyScenario.node[111].nic.mac1609_4 	ReceivedBroadcasts 	0
scalar MyScenario.node[111].nic.mac1609_4 	SentPackets 	0
scalar MyScenario.node[111].nic.mac1609_4 	SNIRLostPackets 	0
scalar MyScenario.node[111].nic.mac1609_4 	RXTXLostPackets 	0
scalar MyScenario.node[111].nic.mac1609_4 	TotalLostPackets 	0
scalar MyScenario.node[111].nic.mac1609_4 	DroppedPacketsInMac 	0
scalar MyScenario.node[111].nic.mac1609_4 	TooLittleTime 	0
scalar MyScenario.node[111].nic.mac1609_4 	TimesIntoBackoff 	0
scalar MyScenario.node[111].nic.mac1609_4 	SlotsBackoff 	0
scalar MyScenario.node[111].nic.mac1609_4 	NumInternalContention 	0
scalar MyScenario.node[111].nic.mac1609_4 	totalBusyTime 	0
scalar MyScenario.node[111].veinsmobility 	startTime 	1
scalar MyScenario.node[111].veinsmobility 	totalTime 	9
scalar MyScenario.node[111].veinsmobility 	stopTime 	11
scalar MyScenario.node[111].veinsmobility 	minSpeed 	2.2480864274781
scalar MyScenario.node[111].veinsmobility 	maxSpeed 	13.876246852335
scalar MyScenario.node[111].veinsmobility 	totalDistance 	83.47131577332
scalar MyScenario.node[111].veinsmobility 	totalCO2Emission 	37.844883602989
scalar MyScenario.node[146].appl 	generatedWSMs 	0
scalar MyScenario.node[146].appl 	receivedWSMs 	0
scalar MyScenario.node[146].appl 	generatedBSMs 	0
scalar MyScenario.node[146].appl 	receivedBSMs 	0
scalar MyScenario.node[146].appl 	generatedWSAs 	0
scalar MyScenario.node[146].appl 	receivedWSAs 	0
scalar MyScenario.node[146].nic.phy80211p 	busyTime 	0.00058
scalar MyScenario.node[146].nic.mac1609_4 	ReceivedUnicastPackets 	0
scalar MyScenario.node[146].nic.mac1609_4 	ReceivedBroadcasts 	0
scalar MyScenario.node[146].nic.mac1609_4 	SentPackets 	0
scalar MyScenario.node[146].nic.mac1609_4 	SNIRLostPackets 	25
scalar MyScenario.node[146].nic.mac1609_4 	RXTXLostPackets 	0
scalar MyScenario.node[146].nic.mac1609_4 	TotalLostPackets 	25
scalar MyScenario.node[146].nic.mac1609_4 	DroppedPacketsInMac 	0
scalar MyScenario.node[146].nic.mac1609_4 	TooLittleTime 	0
scalar MyScenario.node[146].nic.mac1609_4 	TimesIntoBackoff 	0
scalar MyScenario.node[146].nic.mac1609_4 	SlotsBackoff 	0
scalar MyScenario.node[146].nic.mac1609_4 	NumInternalContention 	0
scalar MyScenario.node[146].nic.mac1609_4 	totalBusyTime 	0.00116
scalar MyScenario.node[146].veinsmobility 	startTime 	1
scalar MyScenario.node[146].veinsmobility 	totalTime 	9
scalar MyScenario.node[146].veinsmobility 	stopTime 	11
scalar MyScenario.node[146].veinsmobility 	minSpeed 	2.305697086826
scalar MyScenario.node[146].veinsmobility 	maxSpeed 	13.350765986508
scalar MyScenario.node[146].veinsmobility 	totalDistance 	82.764878740208
scalar MyScenario.node[146].veinsmobility 	totalCO2Emission 	36.975064293077
scalar MyScenario.node[214].appl 	generatedWSMs 	0
scalar MyScenario.node[214].appl 	receivedWSMs 	0
scalar MyScenario.node[214].appl 	generatedBSMs 	0
scalar MyScenario.node[214].appl 	receivedBSMs 	0
scalar MyScenario.node[214].appl 	generatedWSAs 	0
scalar MyScenario.node[214].appl 	receivedWSAs 	0
scalar MyScenario.node[214].nic.phy80211p 	busyTime 	0.00014763636363636
scalar MyScenario.node[214].nic.mac1609_4 	ReceivedUnicastPackets 	0
scalar MyScenario.node[214].nic.mac1609_4 	ReceivedBroadcasts 	0
scalar MyScenario.node[214].nic.mac1609_4 	SentPackets 	0
scalar MyScenario.node[214].nic.mac1609_4 	SNIRLostPackets 	7
scalar MyScenario.node[214].nic.mac1609_4 	RXTXLostPackets 	0
scalar MyScenario.node[214].nic.mac1609_4 	TotalLostPackets 	7
scalar MyScenario.node[214].nic.mac1609_4 	DroppedPacketsInMac 	0
scalar MyScenario.node[214].nic.mac1609_4 	TooLittleTime 	0
scalar MyScenario.node[214].nic.mac1609_4 	TimesIntoBackoff 	0
scalar MyScenario.node[214].nic.mac1609_4 	SlotsBackoff 	0
scalar MyScenario.node[214].nic.mac1609_4 	NumInternalContention 	0
scalar MyScenario.node[214].nic.mac1609_4 	totalBusyTime 	0.000232
scalar MyScenario.node[214].veinsmobility 	startTime 	1
scalar MyScenario.node[214].veinsmobility 	totalTime 	10
scalar MyScenario.node[214].veinsmobility 	stopTime 	12
scalar MyScenario.node[214].veinsmobility 	minSpeed 	1.8352984703612
scalar MyScenario.node[214].veinsmobility 	maxSpeed 	13.688261892926
scalar MyScenario.node[214].veinsmobility 	totalDistance 	93.9068023673
scalar MyScenario.node[214].veinsmobility 	totalCO2Emission 	39.137452084256
scalar MyScenario.node[193].appl 	generatedWSMs 	0
scalar MyScenario.node[193].appl 	receivedWSMs 	0
scalar MyScenario.node[193].appl 	generatedBSMs 	0
scalar MyScenario.node[193].appl 	receivedBSMs 	0
scalar MyScenario.node[193].appl 	generatedWSAs 	0
scalar MyScenario.node[193].appl 	receivedWSAs 	0
scalar MyScenario.node[193].nic.phy80211p 	busyTime 	0
scalar MyScenario.node[193].nic.mac1609_4 	ReceivedUnicastPackets 	0
scalar MyScenario.node[193].nic.mac1609_4 	ReceivedBroadcasts 	0
scalar MyScenario.node[193].nic.mac1609_4 	SentPackets 	0
scalar MyScenario.node[193].nic.mac1609_4 	SNIRLostPackets 	0
scalar MyScenario.node[193].nic.mac1609_4 	RXTXLostPackets 	0
scalar MyScenario.node[193].nic.mac1609_4 	TotalLostPackets 	0
scalar MyScenario.node[193].nic.mac1609_4 	DroppedPacketsInMac 	0
scalar MyScenario.node[193].nic.mac1609_4 	TooLittleTime 	0
scalar MyScenario.node[193].nic.mac1609_4 	TimesIntoBackoff 	0
scalar MyScenario.node[193].nic.mac1609_4 	SlotsBackoff 	0
scalar MyScenario.node[193].nic.mac1609_4 	NumInternalContention 	0
scalar MyScenario.node[193].nic.mac1609_4 	totalBusyTime 	0
scalar MyScenario.node[193].veinsmobility 	startTime 	1
scalar MyScenario.node[193].veinsmobility 	totalTime 	10
scalar MyScenario.node[193].veinsmobility 	stopTime 	12
scalar MyScenario.node[193].veinsmobility 	minSpeed 	1.334845714434
scalar MyScenario.node[193].veinsmobility 	maxSpeed 	13.247856421093
scalar MyScenario.node[193].veinsmobility 	totalDistance 	81.288355589053
scalar MyScenario.node[193].veinsmobility 	totalCO2Emission 	38.02921570521
scalar MyScenario.node[161].appl 	generatedWSMs 	0
scalar MyScenario.node[161].appl 	receivedWSMs 	0
scalar MyScenario.node[161].appl 	generatedBSMs 	0
scalar MyScenario.node[161].appl 	receivedBSMs 	0
scalar MyScenario.node[161].appl 	generatedWSAs 	0
scalar MyScenario.node[161].appl 	receivedWSAs 	0
scalar MyScenario.node[161].nic.phy80211p 	busyTime 	0.00018981818181818
scalar MyScenario.node[161].nic.mac1609_4 	ReceivedUnicastPackets 	0
scalar MyScenario.node[161].nic.mac1609_4 	ReceivedBroadcasts 	0
scalar MyScenario.node[161].nic.mac1609_4 	SentPackets 	0
scalar MyScenario.node[161].nic.mac1609_4 	SNIRLostPackets 	9
scalar MyScenario.node[161].nic.mac1609_4 	RXTXLostPackets 	0
scalar MyScenario.node[161].nic.mac1609_4 	TotalLostPackets 	9
scalar MyScenario.node[161].nic.mac1609_4 	DroppedPacketsInMac 	0
scalar MyScenario.node[161].nic.mac1609_4 	TooLittleTime 	0
scalar MyScenario.node[161].nic.mac1609_4 	TimesIntoBackoff 	0
scalar MyScenario.node[161].nic.mac1609_4 	SlotsBackoff 	0
scalar MyScenario.node[161].nic.mac1609_4 	NumInternalContention 	0
scalar MyScenario.node[161].nic.mac1609_4 	totalBusyTime 	0.000928
scalar MyScenario.node[161].veinsmobility 	startTime 	1
scalar MyScenario.node[161].veinsmobility 	totalTime 	10
scalar MyScenario.node[161].veinsmobility 	stopTime 	12
scalar MyScenario.node[161].veinsmobility 	minSpeed 	1.7865482414141
scalar MyScenario.node[161].veinsmobility 	maxSpeed 	13.69510955296
scalar MyScenario.node[161].veinsmobility 	totalDistance 	92.265444206204
scalar MyScenario.node[161].veinsmobility 	totalCO2Emission 	39.781719722056
scalar MyScenario.node[281].appl 	generatedWSMs 	0
scalar MyScenario.node[281].appl 	receivedWSMs 	0
scalar MyScenario.node[281].appl 	generatedBSMs 	0
scalar MyScenario.node[281].appl 	receivedBSMs 	0
scalar MyScenario.node[281].appl 	generatedWSAs 	0
scalar MyScenario.node[281].appl 	receivedWSAs 	0
scalar MyScenario.node[281].nic.phy80211p 	busyTime 	0.00040072727272727
scalar MyScenario.node[281].nic.mac1609_4 	ReceivedUnicastPackets 	0
scalar MyScenario.node[281].nic.mac1609_4 	ReceivedBroadcasts 	0
scalar MyScenario.node[281].nic.mac1609_4 	SentPackets 	0
scalar MyScenario.node[281].nic.mac1609_4 	SNIRLostPackets 	19
scalar MyScenario.node[281].nic.mac1609_4 	RXTXLostPackets 	0
scalar MyScenario.node[281].nic.mac1609_4 	TotalLostPackets 	19
scalar MyScenario.node[281].nic.mac1609_4 	DroppedPacketsInMac 	0
scalar MyScenario.node[281].nic.mac1609_4 	TooLittleTime 	0
scalar MyScenario.node[281].nic.mac1609_4 	TimesIntoBackoff 	0
scalar MyScenario.node[281].nic.mac1609_4 	SlotsBackoff 	0
scalar MyScenario.node[281].nic.mac1609_4 	NumInternalContention 	0
scalar MyScenario.node[281].nic.mac1609_4 	totalBusyTime 	0.000464
scalar MyScenario.node[281].veinsmobility 	startTime 	4
scalar MyScenario.node[281].veinsmobility 	totalTime 	10
scalar MyScenario.node[281].veinsmobility 	stopTime 	15
scalar MyScenario.node[281].veinsmobility 	minSpeed 	1.9517839804292
scalar MyScenario.node[281].veinsmobility 	maxSpeed 	13.894841968431
scalar MyScenario.node[281].veinsmobility 	totalDistance 	88.503260248837
scalar MyScenario.node[281].veinsmobility 	totalCO2Emission 	39.303014793813
scalar MyScenario.node[287].appl 	generatedWSMs 	1
scalar MyScenario.node[287].appl 	receivedWSMs 	1
scalar MyScenario.node[287].appl 	generatedBSMs 	0
scalar MyScenario.node[287].appl 	receivedBSMs 	0
scalar MyScenario.node[287].appl 	generatedWSAs 	0
scalar MyScenario.node[287].appl 	receivedWSAs 	0
scalar MyScenario.node[287].nic.phy80211p 	busyTime 	0.00033745454545455
scalar MyScenario.node[287].nic.mac1609_4 	ReceivedUnicastPackets 	0
scalar MyScenario.node[287].nic.mac1609_4 	ReceivedBroadcasts 	1
scalar MyScenario.node[287].nic.mac1609_4 	SentPackets 	1
scalar MyScenario.node[287].nic.mac1609_4 	SNIRLostPackets 	15
scalar MyScenario.node[287].nic.mac1609_4 	RXTXLostPackets 	12
scalar MyScenario.node[287].nic.mac1609_4 	TotalLostPackets 	27
scalar MyScenario.node[287].nic.mac1609_4 	DroppedPacketsInMac 	0
scalar MyScenario.node[287].nic.mac1609_4 	TooLittleTime 	0
scalar MyScenario.node[287].nic.mac1609_4 	TimesIntoBackoff 	1
scalar MyScenario.node[287].nic.mac1609_4 	SlotsBackoff 	2
scalar MyScenario.node[287].nic.mac1609_4 	NumInternalContention 	0
scalar MyScenario.node[287].nic.mac1609_4 	totalBusyTime 	0.001161114379
scalar MyScenario.node[287].veinsmobility 	startTime 	4
scalar MyScenario.node[287].veinsmobility 	totalTime 	10
scalar MyScenario.node[287].veinsmobility 	stopTime 	15
scalar MyScenario.node[287].veinsmobility 	minSpeed 	2.3270871803164
scalar MyScenario.node[287].veinsmobility 	maxSpeed 	13.770610520244
scalar MyScenario.node[287].veinsmobility 	totalDistance 	92.124825959874
scalar MyScenario.node[287].veinsmobility 	totalCO2Emission 	37.646562439201
scalar MyScenario.node[370].appl 	generatedWSMs 	0
scalar MyScenario.node[370].appl 	receivedWSMs 	0
scalar MyScenario.node[370].appl 	generatedBSMs 	0
scalar MyScenario.node[370].appl 	receivedBSMs 	0
scalar MyScenario.node[370].appl 	generatedWSAs 	0
scalar MyScenario.node[370].appl 	receivedWSAs 	0
scalar MyScenario.node[370].nic.phy80211p 	busyTime 	0
scalar MyScenario.node[370].nic.mac1609_4 	ReceivedUnicastPackets 	0
scalar MyScenario.node[370].nic.mac1609_4 	ReceivedBroadcasts 	0
scalar MyScenario.node[370].nic.mac1609_4 	SentPackets 	0
scalar MyScenario.node[370].nic.mac1609_4 	SNIRLostPackets 	0
scalar MyScenario.node[370].nic.mac1609_4 	RXTXLostPackets 	0
scalar MyScenario.node[370].nic.mac1609_4 	TotalLostPackets 	0
scalar MyScenario.node[370].nic.mac1609_4 	DroppedPacketsInMac 	0
scalar MyScenario.node[370].nic.mac1609_4 	TooLittleTime 	0
scalar MyScenario.node[370].nic.mac1609_4 	TimesIntoBackoff 	0
scalar MyScenario.node[370].nic.mac1609_4 	SlotsBackoff 	0
scalar MyScenario.node[370].nic.mac1609_4 	NumInternalContention 	0
scalar MyScenario.node[370].nic.mac1609_4 	totalBusyTime 	0
scalar MyScenario.node[370].veinsmobility 	startTime 	7
scalar MyScenario.node[370].veinsmobility 	totalTime 	9
scalar MyScenario.node[370].veinsmobility 	stopTime 	17
scalar MyScenario.node[370].veinsmobility 	minSpeed 	2.0126542709768
scalar MyScenario.node[370].veinsmobility 	maxSpeed 	13.86883861653
scalar MyScenario.node[370].veinsmobility 	totalDistance 	84.754398553516
scalar MyScenario.node[370].veinsmobility 	totalCO2Emission 	37.585924863643
scalar MyScenario.node[0].appl 	generatedWSMs 	6
scalar MyScenario.node[0].appl 	receivedWSMs 	4
scalar MyScenario.node[0].appl 	generatedBSMs 	0
scalar MyScenario.node[0].appl 	receivedBSMs 	0
scalar MyScenario.node[0].appl 	generatedWSAs 	0
scalar MyScenario.node[0].appl 	receivedWSAs 	0
scalar MyScenario.node[0].nic.phy80211p 	busyTime 	0.00042533333333333
scalar MyScenario.node[0].nic.mac1609_4 	ReceivedUnicastPackets 	0
scalar MyScenario.node[0].nic.mac1609_4 	ReceivedBroadcasts 	4
scalar MyScenario.node[0].nic.mac1609_4 	SentPackets 	6
scalar MyScenario.node[0].nic.mac1609_4 	SNIRLostPackets 	29
scalar MyScenario.node[0].nic.mac1609_4 	RXTXLostPackets 	0
scalar MyScenario.node[0].nic.mac1609_4 	TotalLostPackets 	29
scalar MyScenario.node[0].nic.mac1609_4 	DroppedPacketsInMac 	0
scalar MyScenario.node[0].nic.mac1609_4 	TooLittleTime 	0
scalar MyScenario.node[0].nic.mac1609_4 	TimesIntoBackoff 	6
scalar MyScenario.node[0].nic.mac1609_4 	SlotsBackoff 	5
scalar MyScenario.node[0].nic.mac1609_4 	NumInternalContention 	0
scalar MyScenario.node[0].nic.mac1609_4 	totalBusyTime 	0.00255803903
scalar MyScenario.node[0].veinsmobility 	startTime 	1
scalar MyScenario.node[0].veinsmobility 	totalTime 	17
scalar MyScenario.node[0].veinsmobility 	stopTime 	19
scalar MyScenario.node[0].veinsmobility 	minSpeed 	2.071321815066
scalar MyScenario.node[0].veinsmobility 	maxSpeed 	13.891116110701
scalar MyScenario.node[0].veinsmobility 	totalDistance 	182.21827525431
scalar MyScenario.node[0].veinsmobility 	totalCO2Emission 	57.341848154924
scalar MyScenario.node[139].appl 	generatedWSMs 	0
scalar MyScenario.node[139].appl 	receivedWSMs 	0
scalar MyScenario.node[139].appl 	generatedBSMs 	0
scalar MyScenario.node[139].appl 	receivedBSMs 	0
scalar MyScenario.node[139].appl 	generatedWSAs 	0
scalar MyScenario.node[139].appl 	receivedWSAs 	0
scalar MyScenario.node[139].nic.phy80211p 	busyTime 	0.000116
scalar MyScenario.node[139].nic.mac1609_4 	ReceivedUnicastPackets 	0
scalar MyScenario.node[139].nic.mac1609_4 	ReceivedBroadcasts 	0
scalar MyScenario.node[139].nic.mac1609_4 	SentPackets 	0
scalar MyScenario.node[139].nic.mac1609_4 	SNIRLostPackets 	9
scalar MyScenario.node[139].nic.mac1609_4 	RXTXLostPackets 	0
scalar MyScenario.node[139].nic.mac1609_4 	TotalLostPackets 	9
scalar MyScenario.node[139].nic.mac1609_4 	DroppedPacketsInMac 	0
scalar MyScenario.node[139].nic.mac1609_4 	TooLittleTime 	0
scalar MyScenario.node[139].nic.mac1609_4 	TimesIntoBackoff 	0
scalar MyScenario.node[139].nic.mac1609_4 	SlotsBackoff 	0
scalar MyScenario.node[139].nic.mac1609_4 	NumInternalContention 	0
scalar MyScenario.node[139].nic.mac1609_4 	totalBusyTime 	0.000696
scalar MyScenario.node[139].veinsmobility 	startTime 	1
scalar MyScenario.node[139].veinsmobility 	totalTime 	17
scalar MyScenario.node[139].veinsmobility 	stopTime 	19
scalar MyScenario.node[139].veinsmobility 	minSpeed 	1.331292209262
scalar MyScenario.node[139].veinsmobility 	maxSpeed 	13.692483641021
scalar MyScenario.node[139].veinsmobility 	totalDistance 	166.28417378931
scalar MyScenario.node[139].veinsmobility 	totalCO2Emission 	65.669871309039
scalar MyScenario.node[113].appl 	generatedWSMs 	0
scalar MyScenario.node[113].appl 	receivedWSMs 	0
scalar MyScenario.node[113].appl 	generatedBSMs 	0
scalar MyScenario.node[113].appl 	receivedBSMs 	0
scalar MyScenario.node[113].appl 	generatedWSAs 	0
scalar MyScenario.node[113].appl 	receivedWSAs 	0
scalar MyScenario.node[113].nic.phy80211p 	busyTime 	0
scalar MyScenario.node[113].nic.mac1609_4 	ReceivedUnicastPackets 	0
scalar MyScenario.node[113].nic.mac1609_4 	ReceivedBroadcasts 	0
scalar MyScenario.node[113].nic.mac1609_4 	SentPackets 	0
scalar MyScenario.node[113].nic.mac1609_4 	SNIRLostPackets 	0
scalar MyScenario.node[113].nic.mac1609_4 	RXTXLostPackets 	0
scalar MyScenario.node[113].nic.mac1609_4 	TotalLostPackets 	0
scalar MyScenario.node[113].nic.mac1609_4 	DroppedPacketsInMac 	0
scalar MyScenario.node[113].nic.mac1609_4 	TooLittleTime 	0
scalar MyScenario.node[113].nic.mac1609_4 	TimesIntoBackoff 	0
scalar MyScenario.node[113].nic.mac1609_4 	SlotsBackoff 	0
scalar MyScenario.node[113].nic.mac1609_4 	NumInternalContention 	0
scalar MyScenario.node[113].nic.mac1609_4 	totalBusyTime 	0
scalar MyScenario.node[113].veinsmobility 	startTime 	1
scalar MyScenario.node[113].veinsmobility 	totalTime 	18
scalar MyScenario.node[113].veinsmobility 	stopTime 	20
scalar MyScenario.node[113].veinsmobility 	minSpeed 	1.6060685551492
scalar MyScenario.node[113].veinsmobility 	maxSpeed 	13.458037606347
scalar MyScenario.node[113].veinsmobility 	totalDistance 	179.79104101308
scalar MyScenario.node[113].veinsmobility 	totalCO2Emission 	71.176681094575
scalar MyScenario.node[264].appl 	generatedWSMs 	0
scalar MyScenario.node[264].appl 	receivedWSMs 	0
scalar MyScenario.node[264].appl 	generatedBSMs 	0
scalar MyScenario.node[264].appl 	receivedBSMs 	0
scalar MyScenario.node[264].appl 	generatedWSAs 	0
scalar MyScenario.node[264].appl 	receivedWSAs 	0
scalar MyScenario.node[264].nic.phy80211p 	busyTime 	0
scalar MyScenario.node[264].nic.mac1609_4 	ReceivedUnicastPackets 	0
scalar MyScenario.node[264].nic.mac1609_4 	ReceivedBroadcasts 	0
scalar MyScenario.node[264].nic.mac1609_4 	SentPackets 	0
scalar MyScenario.node[264].nic.mac1609_4 	SNIRLostPackets 	0
scalar MyScenario.node[264].nic.mac1609_4 	RXTXLostPackets 	0
scalar MyScenario.node[264].nic.mac1609_4 	TotalLostPackets 	0
scalar MyScenario.node[264].nic.mac1609_4 	DroppedPacketsInMac 	0
scalar MyScenario.node[264].nic.mac1609_4 	TooLittleTime 	0
scalar MyScenario.node[264].nic.mac1609_4 	TimesIntoBackoff 	0
scalar MyScenario.node[264].nic.mac1609_4 	SlotsBackoff 	0
scalar MyScenario.node[264].nic.mac1609_4 	NumInternalContention 	0
scalar MyScenario.node[264].nic.mac1609_4 	totalBusyTime 	0
scalar MyScenario.node[264].veinsmobility 	startTime 	4
scalar MyScenario.node[264].veinsmobility 	totalTime 	16
scalar MyScenario.node[264].veinsmobility 	stopTime 	21
scalar MyScenario.node[264].veinsmobility 	minSpeed 	2.1614462332102
scalar MyScenario.node[264].veinsmobility 	maxSpeed 	13.837264229148
scalar MyScenario.node[264].veinsmobility 	totalDistance 	180.35871022261
scalar MyScenario.node[264].veinsmobility 	totalCO2Emission 	53.13195722011
scalar MyScenario.node[346].appl 	generatedWSMs 	0
scalar MyScenario.node[346].appl 	receivedWSMs 	0
scalar MyScenario.node[346].appl 	generatedBSMs 	0
scalar MyScenario.node[346].appl 	receivedBSMs 	0
scalar MyScenario.node[346].appl 	generatedWSAs 	0
scalar MyScenario.node[346].appl 	receivedWSAs 	0
scalar MyScenario.node[346].nic.phy80211p 	busyTime 	0.00014361904761905
scalar MyScenario.node[346].nic.mac1609_4 	ReceivedUnicastPackets 	0
scalar MyScenario.node[346].nic.mac1609_4 	ReceivedBroadcasts 	0
scalar MyScenario.node[346].nic.mac1609_4 	SentPackets 	0
scalar MyScenario.node[346].nic.mac1609_4 	SNIRLostPackets 	13
scalar MyScenario.node[346].nic.mac1609_4 	RXTXLostPackets 	0
scalar MyScenario.node[346].nic.mac1609_4 	TotalLostPackets 	13
scalar MyScenario.node[346].nic.mac1609_4 	DroppedPacketsInMac 	0
scalar MyScenario.node[346].nic.mac1609_4 	TooLittleTime 	0
scalar MyScenario.node[346].nic.mac1609_4 	TimesIntoBackoff 	0
scalar MyScenario.node[346].nic.mac1609_4 	SlotsBackoff 	0
scalar MyScenario.node[346].nic.mac1609_4 	NumInternalContention 	0
scalar MyScenario.node[346].nic.mac1609_4 	totalBusyTime 	0.000232
scalar MyScenario.node[346].veinsmobility 	startTime 	4
scalar MyScenario.node[346].veinsmobility 	totalTime 	20
scalar MyScenario.node[346].veinsmobility 	stopTime 	25
scalar MyScenario.node[346].veinsmobility 	minSpeed 	1.5631930676056
scalar MyScenario.node[346].veinsmobility 	maxSpeed 	13.619817309151
scalar MyScenario.node[346].veinsmobility 	totalDistance 	182.76435780908
scalar MyScenario.node[346].veinsmobility 	totalCO2Emission 	77.048151290882
scalar MyScenario.node[178].appl 	generatedWSMs 	1
scalar MyScenario.node[178].appl 	receivedWSMs 	1
scalar MyScenario.node[178].appl 	generatedBSMs 	0
scalar MyScenario.node[178].appl 	receivedBSMs 	0
scalar MyScenario.node[178].appl 	generatedWSAs 	0
scalar MyScenario.node[178].appl 	receivedWSAs 	0
scalar MyScenario.node[178].nic.phy80211p 	busyTime 	0.00016704
scalar MyScenario.node[178].nic.mac1609_4 	ReceivedUnicastPackets 	0
scalar MyScenario.node[178].nic.mac1609_4 	ReceivedBroadcasts 	1
scalar MyScenario.node[178].nic.mac1609_4 	SentPackets 	1
scalar MyScenario.node[178].nic.mac1609_4 	SNIRLostPackets 	17
scalar MyScenario.node[178].nic.mac1609_4 	RXTXLostPackets 	12
scalar MyScenario.node[178].nic.mac1609_4 	TotalLostPackets 	29
scalar MyScenario.node[178].nic.mac1609_4 	DroppedPacketsInMac 	0
scalar MyScenario.node[178].nic.mac1609_4 	TooLittleTime 	0
scalar MyScenario.node[178].nic.mac1609_4 	TimesIntoBackoff 	1
scalar MyScenario.node[178].nic.mac1609_4 	SlotsBackoff 	0
scalar MyScenario.node[178].nic.mac1609_4 	NumInternalContention 	0
scalar MyScenario.node[178].nic.mac1609_4 	totalBusyTime 	0.001161005627
scalar MyScenario.node[178].veinsmobility 	startTime 	1
scalar MyScenario.node[178].veinsmobility 	totalTime 	24
scalar MyScenario.node[178].veinsmobility 	stopTime 	26
scalar MyScenario.node[178].veinsmobility 	minSpeed 	2.1126869719941
scalar MyScenario.node[178].veinsmobility 	maxSpeed 	13.892207070836
scalar MyScenario.node[178].veinsmobility 	totalDistance 	267.42192424735
scalar MyScenario.node[178].veinsmobility 	totalCO2Emission 	83.767602670734
scalar MyScenario.node[104].appl 	generatedWSMs 	0
scalar MyScenario.node[104].appl 	receivedWSMs 	0
scalar MyScenario.node[104].appl 	generatedBSMs 	0
scalar MyScenario.node[104].appl 	receivedBSMs 	0
scalar MyScenario.node[104].appl 	generatedWSAs 	0
scalar MyScenario.node[104].appl 	receivedWSAs 	0
scalar MyScenario.node[104].nic.phy80211p 	busyTime 	0
scalar MyScenario.node[104].nic.mac1609_4 	ReceivedUnicastPackets 	0
scalar MyScenario.node[104].nic.mac1609_4 	ReceivedBroadcasts 	0
scalar MyScenario.node[104].nic.mac1609_4 	SentPackets 	0
scalar MyScenario.node[104].nic.mac1609_4 	SNIRLostPackets 	0
scalar MyScenario.node[104].nic.mac1609_4 	RXTXLostPackets 	0
scalar MyScenario.node[104].nic.mac1609_4 	TotalLostPackets 	0
scalar MyScenario.node[104].nic.mac1609_4 	DroppedPacketsInMac 	0
scalar MyScenario.node[104].nic.mac1609_4 	TooLittleTime 	0
scalar MyScenario.node[104].nic.mac1609_4 	TimesIntoBackoff 	0
scalar MyScenario.node[104].nic.mac1609_4 	SlotsBackoff 	0
scalar MyScenario.node[104].nic.mac1609_4 	NumInternalContention 	0
scalar MyScenario.node[104].nic.mac1609_4 	totalBusyTime 	0
scalar MyScenario.node[104].veinsmobility 	startTime 	1
scalar MyScenario.node[104].veinsmobility 	totalTime 	25
scalar MyScenario.node[104].veinsmobility 	stopTime 	27
scalar MyScenario.node[104].veinsmobility 	minSpeed 	2.2291654559551
scalar MyScenario.node[104].veinsmobility 	maxSpeed 	13.839225671673
scalar MyScenario.node[104].veinsmobility 	totalDistance 	272.10284024309
scalar MyScenario.node[104].veinsmobility 	totalCO2Emission 	86.445933517504
scalar MyScenario.node[407].appl 	generatedWSMs 	0
scalar MyScenario.node[407].appl 	receivedWSMs 	0
scalar MyScenario.node[407].appl 	generatedBSMs 	0
scalar MyScenario.node[407].appl 	receivedBSMs 	0
scalar MyScenario.node[407].appl 	generatedWSAs 	0
scalar MyScenario.node[407].appl 	receivedWSAs 	0
scalar MyScenario.node[407].nic.phy80211p 	busyTime 	0
scalar MyScenario.node[407].nic.mac1609_4 	ReceivedUnicastPackets 	0
scalar MyScenario.node[407].nic.mac1609_4 	ReceivedBroadcasts 	0
scalar MyScenario.node[407].nic.mac1609_4 	SentPackets 	0
scalar MyScenario.node[407].nic.mac1609_4 	SNIRLostPackets 	0
scalar MyScenario.node[407].nic.mac1609_4 	RXTXLostPackets 	0
scalar MyScenario.node[407].nic.mac1609_4 	TotalLostPackets 	0
scalar MyScenario.node[407].nic.mac1609_4 	DroppedPacketsInMac 	0
scalar MyScenario.node[407].nic.mac1609_4 	TooLittleTime 	0
scalar MyScenario.node[407].nic.mac1609_4 	TimesIntoBackoff 	0
scalar MyScenario.node[407].nic.mac1609_4 	SlotsBackoff 	0
scalar MyScenario.node[407].nic.mac1609_4 	NumInternalContention 	0
scalar MyScenario.node[407].nic.mac1609_4 	totalBusyTime 	0
scalar MyScenario.node[407].veinsmobility 	startTime 	18
scalar MyScenario.node[407].veinsmobility 	totalTime 	9
scalar MyScenario.node[407].veinsmobility 	stopTime 	28
scalar MyScenario.node[407].veinsmobility 	minSpeed 	1.978603017563
scalar MyScenario.node[407].veinsmobility 	maxSpeed 	13.317555640033
scalar MyScenario.node[407].veinsmobility 	totalDistance 	78.517539769947
scalar MyScenario.node[407].veinsmobility 	totalCO2Emission 	35.878307136929
scalar MyScenario.node[311].appl 	generatedWSMs 	0
scalar MyScenario.node[311].appl 	receivedWSMs 	0
scalar MyScenario.node[311].appl 	generatedBSMs 	0
scalar MyScenario.node[311].appl 	receivedBSMs 	0
scalar MyScenario.node[311].appl 	generatedWSAs 	0
scalar MyScenario.node[311].appl 	receivedWSAs 	0
scalar MyScenario.node[311].nic.phy80211p 	busyTime 	8.352e-05
scalar MyScenario.node[311].nic.mac1609_4 	ReceivedUnicastPackets 	0
scalar MyScenario.node[311].nic.mac1609_4 	ReceivedBroadcasts 	0
scalar MyScenario.node[311].nic.mac1609_4 	SentPackets 	0
scalar MyScenario.node[311].nic.mac1609_4 	SNIRLostPackets 	9
scalar MyScenario.node[311].nic.mac1609_4 	RXTXLostPackets 	0
scalar MyScenario.node[311].nic.mac1609_4 	TotalLostPackets 	9
scalar MyScenario.node[311].nic.mac1609_4 	DroppedPacketsInMac 	0
scalar MyScenario.node[311].nic.mac1609_4 	TooLittleTime 	0
scalar MyScenario.node[311].nic.mac1609_4 	TimesIntoBackoff 	0
scalar MyScenario.node[311].nic.mac1609_4 	SlotsBackoff 	0
scalar MyScenario.node[311].nic.mac1609_4 	NumInternalContention 	0
scalar MyScenario.node[311].nic.mac1609_4 	totalBusyTime 	0.000232
scalar MyScenario.node[311].veinsmobility 	startTime 	4
scalar MyScenario.node[311].veinsmobility 	totalTime 	24
scalar MyScenario.node[311].veinsmobility 	stopTime 	29
scalar MyScenario.node[311].veinsmobility 	minSpeed 	1.6482107393444
scalar MyScenario.node[311].veinsmobility 	maxSpeed 	13.861906013032
scalar MyScenario.node[311].veinsmobility 	totalDistance 	274.62985586391
scalar MyScenario.node[311].veinsmobility 	totalCO2Emission 	71.332621058723
scalar MyScenario.node[310].appl 	generatedWSMs 	0
scalar MyScenario.node[310].appl 	receivedWSMs 	0
scalar MyScenario.node[310].appl 	generatedBSMs 	0
scalar MyScenario.node[310].appl 	receivedBSMs 	0
scalar MyScenario.node[310].appl 	generatedWSAs 	0
scalar MyScenario.node[310].appl 	receivedWSAs 	0
scalar MyScenario.node[310].nic.phy80211p 	busyTime 	0
scalar MyScenario.node[310].nic.mac1609_4 	ReceivedUnicastPackets 	0
scalar MyScenario.node[310].nic.mac1609_4 	ReceivedBroadcasts 	0
scalar MyScenario.node[310].nic.mac1609_4 	SentPackets 	0
scalar MyScenario.node[310].nic.mac1609_4 	SNIRLostPackets 	0
scalar MyScenario.node[310].nic.mac1609_4 	RXTXLostPackets 	0
scalar MyScenario.node[310].nic.mac1609_4 	TotalLostPackets 	0
scalar MyScenario.node[310].nic.mac1609_4 	DroppedPacketsInMac 	0
scalar MyScenario.node[310].nic.mac1609_4 	TooLittleTime 	0
scalar MyScenario.node[310].nic.mac1609_4 	TimesIntoBackoff 	0
scalar MyScenario.node[310].nic.mac1609_4 	SlotsBackoff 	0
scalar MyScenario.node[310].nic.mac1609_4 	NumInternalContention 	0
scalar MyScenario.node[310].nic.mac1609_4 	totalBusyTime 	0
scalar MyScenario.node[310].veinsmobility 	startTime 	4
scalar MyScenario.node[310].veinsmobility 	totalTime 	25
scalar MyScenario.node[310].veinsmobility 	stopTime 	30
scalar MyScenario.node[310].veinsmobility 	minSpeed 	2.2879990620073
scalar MyScenario.node[310].veinsmobility 	maxSpeed 	13.382676593983
scalar MyScenario.node[310].veinsmobility 	totalDistance 	268.53983710845
scalar MyScenario.node[310].veinsmobility 	totalCO2Emission 	84.491425402788
scalar MyScenario.node[162].appl 	generatedWSMs 	0
scalar MyScenario.node[162].appl 	receivedWSMs 	0
scalar MyScenario.node[162].appl 	generatedBSMs 	0
scalar MyScenario.node[162].appl 	receivedBSMs 	0
scalar MyScenario.node[162].appl 	generatedWSAs 	0
scalar MyScenario.node[162].appl 	receivedWSAs 	0
scalar MyScenario.node[162].nic.phy80211p 	busyTime 	0.000116
scalar MyScenario.node[162].nic.mac1609_4 	ReceivedUnicastPackets 	0
scalar MyScenario.node[162].nic.mac1609_4 	ReceivedBroadcasts 	0
scalar MyScenario.node[162].nic.mac1609_4 	SentPackets 	0
scalar MyScenario.node[162].nic.mac1609_4 	SNIRLostPackets 	15
scalar MyScenario.node[162].nic.mac1609_4 	RXTXLostPackets 	0
scalar MyScenario.node[162].nic.mac1609_4 	TotalLostPackets 	15
scalar MyScenario.node[162].nic.mac1609_4 	DroppedPacketsInMac 	0
scalar MyScenario.node[162].nic.mac1609_4 	TooLittleTime 	0
scalar MyScenario.node[162].nic.mac1609_4 	TimesIntoBackoff 	0
scalar MyScenario.node[162].nic.mac1609_4 	SlotsBackoff 	0
scalar MyScenario.node[162].nic.mac1609_4 	NumInternalContention 	0
scalar MyScenario.node[162].nic.mac1609_4 	totalBusyTime 	0.000464
scalar MyScenario.node[162].veinsmobility 	startTime 	1
scalar MyScenario.node[162].veinsmobility 	totalTime 	29
scalar MyScenario.node[162].veinsmobility 	stopTime 	31
scalar MyScenario.node[162].veinsmobility 	minSpeed 	8.5455761783673e-08
scalar MyScenario.node[162].veinsmobility 	maxSpeed 	13.816530194506
scalar MyScenario.node[162].veinsmobility 	totalDistance 	175.13174117952
scalar MyScenario.node[162].veinsmobility 	totalCO2Emission 	66.751405964146
scalar MyScenario.node[251].appl 	generatedWSMs 	1
scalar MyScenario.node[251].appl 	receivedWSMs 	7
scalar MyScenario.node[251].appl 	generatedBSMs 	0
scalar MyScenario.node[251].appl 	receivedBSMs 	0
scalar MyScenario.node[251].appl 	generatedWSAs 	0
scalar MyScenario.node[251].appl 	receivedWSAs 	0
scalar MyScenario.node[251].nic.phy80211p 	busyTime 	0.00019762962962963
scalar MyScenario.node[251].nic.mac1609_4 	ReceivedUnicastPackets 	0
scalar MyScenario.node[251].nic.mac1609_4 	ReceivedBroadcasts 	7
scalar MyScenario.node[251].nic.mac1609_4 	SentPackets 	1
scalar MyScenario.node[251].nic.mac1609_4 	SNIRLostPackets 	16
scalar MyScenario.node[251].nic.mac1609_4 	RXTXLostPackets 	5
scalar MyScenario.node[251].nic.mac1609_4 	TotalLostPackets 	21
scalar MyScenario.node[251].nic.mac1609_4 	DroppedPacketsInMac 	0
scalar MyScenario.node[251].nic.mac1609_4 	TooLittleTime 	0
scalar MyScenario.node[251].nic.mac1609_4 	TimesIntoBackoff 	1
scalar MyScenario.node[251].nic.mac1609_4 	SlotsBackoff 	3
scalar MyScenario.node[251].nic.mac1609_4 	NumInternalContention 	0
scalar MyScenario.node[251].nic.mac1609_4 	totalBusyTime 	0.002321133136
scalar MyScenario.node[251].veinsmobility 	startTime 	4
scalar MyScenario.node[251].veinsmobility 	totalTime 	26
scalar MyScenario.node[251].veinsmobility 	stopTime 	31
scalar MyScenario.node[251].veinsmobility 	minSpeed 	1.95888786742
scalar MyScenario.node[251].veinsmobility 	maxSpeed 	13.826997316373
scalar MyScenario.node[251].veinsmobility 	totalDistance 	268.19918777474
scalar MyScenario.node[251].veinsmobility 	totalCO2Emission 	87.82685561819
scalar MyScenario.node[22].appl 	generatedWSMs 	1
scalar MyScenario.node[22].appl 	receivedWSMs 	2
scalar MyScenario.node[22].appl 	generatedBSMs 	0
scalar MyScenario.node[22].appl 	receivedBSMs 	0
scalar MyScenario.node[22].appl 	generatedWSAs 	0
scalar MyScenario.node[22].appl 	receivedWSAs 	0
scalar MyScenario.node[22].nic.phy80211p 	busyTime 	0.00013470967741935
scalar MyScenario.node[22].nic.mac1609_4 	ReceivedUnicastPackets 	0
scalar MyScenario.node[22].nic.mac1609_4 	ReceivedBroadcasts 	2
scalar MyScenario.node[22].nic.mac1609_4 	SentPackets 	1
scalar MyScenario.node[22].nic.mac1609_4 	SNIRLostPackets 	16
scalar MyScenario.node[22].nic.mac1609_4 	RXTXLostPackets 	5
scalar MyScenario.node[22].nic.mac1609_4 	TotalLostPackets 	21
scalar MyScenario.node[22].nic.mac1609_4 	DroppedPacketsInMac 	0
scalar MyScenario.node[22].nic.mac1609_4 	TooLittleTime 	0
scalar MyScenario.node[22].nic.mac1609_4 	TimesIntoBackoff 	1
scalar MyScenario.node[22].nic.mac1609_4 	SlotsBackoff 	1
scalar MyScenario.node[22].nic.mac1609_4 	NumInternalContention 	0
scalar MyScenario.node[22].nic.mac1609_4 	totalBusyTime 	0.001625170832
scalar MyScenario.node[22].veinsmobility 	startTime 	1
scalar MyScenario.node[22].veinsmobility 	totalTime 	30
scalar MyScenario.node[22].veinsmobility 	stopTime 	32
scalar MyScenario.node[22].veinsmobility 	minSpeed 	2.4774706210243
scalar MyScenario.node[22].veinsmobility 	maxSpeed 	13.88607781413
scalar MyScenario.node[22].veinsmobility 	totalDistance 	355.58084820824
scalar MyScenario.node[22].veinsmobility 	totalCO2Emission 	87.38651300763
scalar MyScenario.node[399].appl 	generatedWSMs 	0
scalar MyScenario.node[399].appl 	receivedWSMs 	0
scalar MyScenario.node[399].appl 	generatedBSMs 	0
scalar MyScenario.node[399].appl 	receivedBSMs 	0
scalar MyScenario.node[399].appl 	generatedWSAs 	0
scalar MyScenario.node[399].appl 	receivedWSAs 	0
scalar MyScenario.node[399].nic.phy80211p 	busyTime 	0
scalar MyScenario.node[399].nic.mac1609_4 	ReceivedUnicastPackets 	0
scalar MyScenario.node[399].nic.mac1609_4 	ReceivedBroadcasts 	0
scalar MyScenario.node[399].nic.mac1609_4 	SentPackets 	0
scalar MyScenario.node[399].nic.mac1609_4 	SNIRLostPackets 	0
scalar MyScenario.node[399].nic.mac1609_4 	RXTXLostPackets 	0
scalar MyScenario.node[399].nic.mac1609_4 	TotalLostPackets 	0
scalar MyScenario.node[399].nic.mac1609_4 	DroppedPacketsInMac 	0
scalar MyScenario.node[399].nic.mac1609_4 	TooLittleTime 	0
scalar MyScenario.node[399].nic.mac1609_4 	TimesIntoBackoff 	0
scalar MyScenario.node[399].nic.mac1609_4 	SlotsBackoff 	0
scalar MyScenario.node[399].nic.mac1609_4 	NumInternalContention 	0
scalar MyScenario.node[399].nic.mac1609_4 	totalBusyTime 	0
scalar MyScenario.node[399].veinsmobility 	startTime 	14
scalar MyScenario.node[399].veinsmobility 	totalTime 	17
scalar MyScenario.node[399].veinsmobility 	stopTime 	32
scalar MyScenario.node[399].veinsmobility 	minSpeed 	4.1631362579582
scalar MyScenario.node[399].veinsmobility 	maxSpeed 	13.491214962234
scalar MyScenario.node[399].veinsmobility 	totalDistance 	177.92694557474
scalar MyScenario.node[399].veinsmobility 	totalCO2Emission 	68.507793949006
scalar MyScenario.node[28].appl 	generatedWSMs 	1
scalar MyScenario.node[28].appl 	receivedWSMs 	1
scalar MyScenario.node[28].appl 	generatedBSMs 	0
scalar MyScenario.node[28].appl 	receivedBSMs 	0
scalar MyScenario.node[28].appl 	generatedWSAs 	0
scalar MyScenario.node[28].appl 	receivedWSAs 	0
scalar MyScenario.node[28].nic.phy80211p 	busyTime 	7.030303030303e-06
scalar MyScenario.node[28].nic.mac1609_4 	ReceivedUnicastPackets 	0
scalar MyScenario.node[28].nic.mac1609_4 	ReceivedBroadcasts 	1
scalar MyScenario.node[28].nic.mac1609_4 	SentPackets 	1
scalar MyScenario.node[28].nic.mac1609_4 	SNIRLostPackets 	0
scalar MyScenario.node[28].nic.mac1609_4 	RXTXLostPackets 	19
scalar MyScenario.node[28].nic.mac1609_4 	TotalLostPackets 	19
scalar MyScenario.node[28].nic.mac1609_4 	DroppedPacketsInMac 	0
scalar MyScenario.node[28].nic.mac1609_4 	TooLittleTime 	0
scalar MyScenario.node[28].nic.mac1609_4 	TimesIntoBackoff 	1
scalar MyScenario.node[28].nic.mac1609_4 	SlotsBackoff 	2
scalar MyScenario.node[28].nic.mac1609_4 	NumInternalContention 	0
scalar MyScenario.node[28].nic.mac1609_4 	totalBusyTime 	0.000465138887
scalar MyScenario.node[28].veinsmobility 	startTime 	1
scalar MyScenario.node[28].veinsmobility 	totalTime 	32
scalar MyScenario.node[28].veinsmobility 	stopTime 	34
scalar MyScenario.node[28].veinsmobility 	minSpeed 	1.8729980340227
scalar MyScenario.node[28].veinsmobility 	maxSpeed 	13.864299518312
scalar MyScenario.node[28].veinsmobility 	totalDistance 	375.37944242363
scalar MyScenario.node[28].veinsmobility 	totalCO2Emission 	93.143111431619
scalar MyScenario.node[142].appl 	generatedWSMs 	0
scalar MyScenario.node[142].appl 	receivedWSMs 	0
scalar MyScenario.node[142].appl 	generatedBSMs 	0
scalar MyScenario.node[142].appl 	receivedBSMs 	0
scalar MyScenario.node[142].appl 	generatedWSAs 	0
scalar MyScenario.node[142].appl 	receivedWSAs 	0
scalar MyScenario.node[142].nic.phy80211p 	busyTime 	0
scalar MyScenario.node[142].nic.mac1609_4 	ReceivedUnicastPackets 	0
scalar MyScenario.node[142].nic.mac1609_4 	ReceivedBroadcasts 	0
scalar MyScenario.node[142].nic.mac1609_4 	SentPackets 	0
scalar MyScenario.node[142].nic.mac1609_4 	SNIRLostPackets 	0
scalar MyScenario.node[142].nic.mac1609_4 	RXTXLostPackets 	0
scalar MyScenario.node[142].nic.mac1609_4 	TotalLostPackets 	0
scalar MyScenario.node[142].nic.mac1609_4 	DroppedPacketsInMac 	0
scalar MyScenario.node[142].nic.mac1609_4 	TooLittleTime 	0
scalar MyScenario.node[142].nic.mac1609_4 	TimesIntoBackoff 	0
scalar MyScenario.node[142].nic.mac1609_4 	SlotsBackoff 	0
scalar MyScenario.node[142].nic.mac1609_4 	NumInternalContention 	0
scalar MyScenario.node[142].nic.mac1609_4 	totalBusyTime 	0
scalar MyScenario.node[142].veinsmobility 	startTime 	1
scalar MyScenario.node[142].veinsmobility 	totalTime 	32
scalar MyScenario.node[142].veinsmobility 	stopTime 	34
scalar MyScenario.node[142].veinsmobility 	minSpeed 	2.442384191975
scalar MyScenario.node[142].veinsmobility 	maxSpeed 	13.879069314571
scalar MyScenario.node[142].veinsmobility 	totalDistance 	362.47583848586
scalar MyScenario.node[142].veinsmobility 	totalCO2Emission 	101.56992014584
scalar MyScenario.node[391].appl 	generatedWSMs 	0
scalar MyScenario.node[391].appl 	receivedWSMs 	0
scalar MyScenario.node[391].appl 	generatedBSMs 	0
scalar MyScenario.node[391].appl 	receivedBSMs 	0
scalar MyScenario.node[391].appl 	generatedWSAs 	0
scalar MyScenario.node[391].appl 	receivedWSAs 	0
scalar MyScenario.node[391].nic.phy80211p 	busyTime 	0
scalar MyScenario.node[391].nic.mac1609_4 	ReceivedUnicastPackets 	0
scalar MyScenario.node[391].nic.mac1609_4 	ReceivedBroadcasts 	0
scalar MyScenario.node[391].nic.mac1609_4 	SentPackets 	0
scalar MyScenario.node[391].nic.mac1609_4 	SNIRLostPackets 	0
scalar MyScenario.node[391].nic.mac1609_4 	RXTXLostPackets 	0
scalar MyScenario.node[391].nic.mac1609_4 	TotalLostPackets 	0
scalar MyScenario.node[391].nic.mac1609_4 	DroppedPacketsInMac 	0
scalar MyScenario.node[391].nic.mac1609_4 	TooLittleTime 	0
scalar MyScenario.node[391].nic.mac1609_4 	TimesIntoBackoff 	0
scalar MyScenario.node[391].nic.mac1609_4 	SlotsBackoff 	0
scalar MyScenario.node[391].nic.mac1609_4 	NumInternalContention 	0
scalar MyScenario.node[391].nic.mac1609_4 	totalBusyTime 	0
scalar MyScenario.node[391].veinsmobility 	startTime 	11
scalar MyScenario.node[391].veinsmobility 	totalTime 	23
scalar MyScenario.node[391].veinsmobility 	stopTime 	35
scalar MyScenario.node[391].veinsmobility 	minSpeed 	4.5308372795859
scalar MyScenario.node[391].veinsmobility 	maxSpeed 	13.886665058718
scalar MyScenario.node[391].veinsmobility 	totalDistance 	280.18934121257
scalar MyScenario.node[391].veinsmobility 	totalCO2Emission 	48.416247263988
scalar MyScenario.node[328].appl 	generatedWSMs 	1
scalar MyScenario.node[328].appl 	receivedWSMs 	1
scalar MyScenario.node[328].appl 	generatedBSMs 	0
scalar MyScenario.node[328].appl 	receivedBSMs 	0
scalar MyScenario.node[328].appl 	generatedWSAs 	0
scalar MyScenario.node[328].appl 	receivedWSAs 	0
scalar MyScenario.node[328].nic.phy80211p 	busyTime 	8.4363636363636e-05
scalar MyScenario.node[328].nic.mac1609_4 	ReceivedUnicastPackets 	0
scalar MyScenario.node[328].nic.mac1609_4 	ReceivedBroadcasts 	1
scalar MyScenario.node[328].nic.mac1609_4 	SentPackets 	1
scalar MyScenario.node[328].nic.mac1609_4 	SNIRLostPackets 	11
scalar MyScenario.node[328].nic.mac1609_4 	RXTXLostPackets 	12
scalar MyScenario.node[328].nic.mac1609_4 	TotalLostPackets 	23
scalar MyScenario.node[328].nic.mac1609_4 	DroppedPacketsInMac 	0
scalar MyScenario.node[328].nic.mac1609_4 	TooLittleTime 	0
scalar MyScenario.node[328].nic.mac1609_4 	TimesIntoBackoff 	1
scalar MyScenario.node[328].nic.mac1609_4 	SlotsBackoff 	1
scalar MyScenario.node[328].nic.mac1609_4 	NumInternalContention 	0
scalar MyScenario.node[328].nic.mac1609_4 	totalBusyTime 	0.001161033033
scalar MyScenario.node[328].veinsmobility 	startTime 	4
scalar MyScenario.node[328].veinsmobility 	totalTime 	32
scalar MyScenario.node[328].veinsmobility 	stopTime 	37
scalar MyScenario.node[328].veinsmobility 	minSpeed 	2.2808621511329
scalar MyScenario.node[328].veinsmobility 	maxSpeed 	13.848441164591
scalar MyScenario.node[328].veinsmobility 	totalDistance 	384.39166423143
scalar MyScenario.node[328].veinsmobility 	totalCO2Emission 	91.045759756043
scalar MyScenario.node[227].appl 	generatedWSMs 	1
scalar MyScenario.node[227].appl 	receivedWSMs 	1
scalar MyScenario.node[227].appl 	generatedBSMs 	0
scalar MyScenario.node[227].appl 	receivedBSMs 	0
scalar MyScenario.node[227].appl 	generatedWSAs 	0
scalar MyScenario.node[227].appl 	receivedWSAs 	0
scalar MyScenario.node[227].nic.phy80211p 	busyTime 	6.4444444444444e-06
scalar MyScenario.node[227].nic.mac1609_4 	ReceivedUnicastPackets 	0
scalar MyScenario.node[227].nic.mac1609_4 	ReceivedBroadcasts 	1
scalar MyScenario.node[227].nic.mac1609_4 	SentPackets 	1
scalar MyScenario.node[227].nic.mac1609_4 	SNIRLostPackets 	0
scalar MyScenario.node[227].nic.mac1609_4 	RXTXLostPackets 	17
scalar MyScenario.node[227].nic.mac1609_4 	TotalLostPackets 	17
scalar MyScenario.node[227].nic.mac1609_4 	DroppedPacketsInMac 	0
scalar MyScenario.node[227].nic.mac1609_4 	TooLittleTime 	0
scalar MyScenario.node[227].nic.mac1609_4 	TimesIntoBackoff 	1
scalar MyScenario.node[227].nic.mac1609_4 	SlotsBackoff 	1
scalar MyScenario.node[227].nic.mac1609_4 	NumInternalContention 	0
scalar MyScenario.node[227].nic.mac1609_4 	totalBusyTime 	0.000465034406
scalar MyScenario.node[227].veinsmobility 	startTime 	1
scalar MyScenario.node[227].veinsmobility 	totalTime 	35
scalar MyScenario.node[227].veinsmobility 	stopTime 	37
scalar MyScenario.node[227].veinsmobility 	minSpeed 	1.5210632503033
scalar MyScenario.node[227].veinsmobility 	maxSpeed 	13.703042906499
scalar MyScenario.node[227].veinsmobility 	totalDistance 	372.96214942892
scalar MyScenario.node[227].veinsmobility 	totalCO2Emission 	108.4328494758
scalar MyScenario.node[159].appl 	generatedWSMs 	0
scalar MyScenario.node[159].appl 	receivedWSMs 	0
scalar MyScenario.node[159].appl 	generatedBSMs 	0
scalar MyScenario.node[159].appl 	receivedBSMs 	0
scalar MyScenario.node[159].appl 	generatedWSAs 	0
scalar MyScenario.node[159].appl 	receivedWSAs 	0
scalar MyScenario.node[159].nic.phy80211p 	busyTime 	0
scalar MyScenario.node[159].nic.mac1609_4 	ReceivedUnicastPackets 	0
scalar MyScenario.node[159].nic.mac1609_4 	ReceivedBroadcasts 	0
scalar MyScenario.node[159].nic.mac1609_4 	SentPackets 	0
scalar MyScenario.node[159].nic.mac1609_4 	SNIRLostPackets 	0
scalar MyScenario.node[159].nic.mac1609_4 	RXTXLostPackets 	0
scalar MyScenario.node[159].nic.mac1609_4 	TotalLostPackets 	0
scalar MyScenario.node[159].nic.mac1609_4 	DroppedPacketsInMac 	0
scalar MyScenario.node[159].nic.mac1609_4 	TooLittleTime 	0
scalar MyScenario.node[159].nic.mac1609_4 	TimesIntoBackoff 	0
scalar MyScenario.node[159].nic.mac1609_4 	SlotsBackoff 	0
scalar MyScenario.node[159].nic.mac1609_4 	NumInternalContention 	0
scalar MyScenario.node[159].nic.mac1609_4 	totalBusyTime 	0
scalar MyScenario.node[159].veinsmobility 	startTime 	1
scalar MyScenario.node[159].veinsmobility 	totalTime 	36
scalar MyScenario.node[159].veinsmobility 	stopTime 	38
scalar MyScenario.node[159].veinsmobility 	minSpeed 	2.1512578858295
scalar MyScenario.node[159].veinsmobility 	maxSpeed 	13.883881414868
scalar MyScenario.node[159].veinsmobility 	totalDistance 	389.32542545418
scalar MyScenario.node[159].veinsmobility 	totalCO2Emission 	116.4065879575
scalar MyScenario.node[65].appl 	generatedWSMs 	0
scalar MyScenario.node[65].appl 	receivedWSMs 	0
scalar MyScenario.node[65].appl 	generatedBSMs 	0
scalar MyScenario.node[65].appl 	receivedBSMs 	0
scalar MyScenario.node[65].appl 	generatedWSAs 	0
scalar MyScenario.node[65].appl 	receivedWSAs 	0
scalar MyScenario.node[65].nic.phy80211p 	busyTime 	0
scalar MyScenario.node[65].nic.mac1609_4 	ReceivedUnicastPackets 	0
scalar MyScenario.node[65].nic.mac1609_4 	ReceivedBroadcasts 	0
scalar MyScenario.node[65].nic.mac1609_4 	SentPackets 	0
scalar MyScenario.node[65].nic.mac1609_4 	SNIRLostPackets 	0
scalar MyScenario.node[65].nic.mac1609_4 	RXTXLostPackets 	0
scalar MyScenario.node[65].nic.mac1609_4 	TotalLostPackets 	0
scalar MyScenario.node[65].nic.mac1609_4 	DroppedPacketsInMac 	0
scalar MyScenario.node[65].nic.mac1609_4 	TooLittleTime 	0
scalar MyScenario.node[65].nic.mac1609_4 	TimesIntoBackoff 	0
scalar MyScenario.node[65].nic.mac1609_4 	SlotsBackoff 	0
scalar MyScenario.node[65].nic.mac1609_4 	NumInternalContention 	0
scalar MyScenario.node[65].nic.mac1609_4 	totalBusyTime 	0
scalar MyScenario.node[65].veinsmobility 	startTime 	1
scalar MyScenario.node[65].veinsmobility 	totalTime 	38
scalar MyScenario.node[65].veinsmobility 	stopTime 	40
scalar MyScenario.node[65].veinsmobility 	minSpeed 	0.16880893883371
scalar MyScenario.node[65].veinsmobility 	maxSpeed 	13.80329487999
scalar MyScenario.node[65].veinsmobility 	totalDistance 	371.49256134158
scalar MyScenario.node[65].veinsmobility 	totalCO2Emission 	130.0382450623
scalar MyScenario.node[13].appl 	generatedWSMs 	0
scalar MyScenario.node[13].appl 	receivedWSMs 	0
scalar MyScenario.node[13].appl 	generatedBSMs 	0
scalar MyScenario.node[13].appl 	receivedBSMs 	0
scalar MyScenario.node[13].appl 	generatedWSAs 	0
scalar MyScenario.node[13].appl 	receivedWSAs 	0
scalar MyScenario.node[13].nic.phy80211p 	busyTime 	0
scalar MyScenario.node[13].nic.mac1609_4 	ReceivedUnicastPackets 	0
scalar MyScenario.node[13].nic.mac1609_4 	ReceivedBroadcasts 	0
scalar MyScenario.node[13].nic.mac1609_4 	SentPackets 	0
scalar MyScenario.node[13].nic.mac1609_4 	SNIRLostPackets 	0
scalar MyScenario.node[13].nic.mac1609_4 	RXTXLostPackets 	0
scalar MyScenario.node[13].nic.mac1609_4 	TotalLostPackets 	0
scalar MyScenario.node[13].nic.mac1609_4 	DroppedPacketsInMac 	0
scalar MyScenario.node[13].nic.mac1609_4 	TooLittleTime 	0
scalar MyScenario.node[13].nic.mac1609_4 	TimesIntoBackoff 	0
scalar MyScenario.node[13].nic.mac1609_4 	SlotsBackoff 	0
scalar MyScenario.node[13].nic.mac1609_4 	NumInternalContention 	0
scalar MyScenario.node[13].nic.mac1609_4 	totalBusyTime 	0
scalar MyScenario.node[13].veinsmobility 	startTime 	1
scalar MyScenario.node[13].veinsmobility 	totalTime 	39
scalar MyScenario.node[13].veinsmobility 	stopTime 	41
scalar MyScenario.node[13].veinsmobility 	minSpeed 	1.3197804185096
scalar MyScenario.node[13].veinsmobility 	maxSpeed 	13.882380026625
scalar MyScenario.node[13].veinsmobility 	totalDistance 	467.86330133732
scalar MyScenario.node[13].veinsmobility 	totalCO2Emission 	115.81875770307
scalar MyScenario.node[99].appl 	generatedWSMs 	0
scalar MyScenario.node[99].appl 	receivedWSMs 	0
scalar MyScenario.node[99].appl 	generatedBSMs 	0
scalar MyScenario.node[99].appl 	receivedBSMs 	0
scalar MyScenario.node[99].appl 	generatedWSAs 	0
scalar MyScenario.node[99].appl 	receivedWSAs 	0
scalar MyScenario.node[99].nic.phy80211p 	busyTime 	0
scalar MyScenario.node[99].nic.mac1609_4 	ReceivedUnicastPackets 	0
scalar MyScenario.node[99].nic.mac1609_4 	ReceivedBroadcasts 	0
scalar MyScenario.node[99].nic.mac1609_4 	SentPackets 	0
scalar MyScenario.node[99].nic.mac1609_4 	SNIRLostPackets 	0
scalar MyScenario.node[99].nic.mac1609_4 	RXTXLostPackets 	0
scalar MyScenario.node[99].nic.mac1609_4 	TotalLostPackets 	0
scalar MyScenario.node[99].nic.mac1609_4 	DroppedPacketsInMac 	0
scalar MyScenario.node[99].nic.mac1609_4 	TooLittleTime 	0
scalar MyScenario.node[99].nic.mac1609_4 	TimesIntoBackoff 	0
scalar MyScenario.node[99].nic.mac1609_4 	SlotsBackoff 	0
scalar MyScenario.node[99].nic.mac1609_4 	NumInternalContention 	0
scalar MyScenario.node[99].nic.mac1609_4 	totalBusyTime 	0
scalar MyScenario.node[99].veinsmobility 	startTime 	1
scalar MyScenario.node[99].veinsmobility 	totalTime 	40
scalar MyScenario.node[99].veinsmobility 	stopTime 	42
scalar MyScenario.node[99].veinsmobility 	minSpeed 	2.1990665074671
scalar MyScenario.node[99].veinsmobility 	maxSpeed 	13.846010505059
scalar MyScenario.node[99].veinsmobility 	totalDistance 	491.19520026734
scalar MyScenario.node[99].veinsmobility 	totalCO2Emission 	105.66152264605
scalar MyScenario.node[175].appl 	generatedWSMs 	0
scalar MyScenario.node[175].appl 	receivedWSMs 	0
scalar MyScenario.node[175].appl 	generatedBSMs 	0
scalar MyScenario.node[175].appl 	receivedBSMs 	0
scalar MyScenario.node[175].appl 	generatedWSAs 	0
scalar MyScenario.node[175].appl 	receivedWSAs 	0
scalar MyScenario.node[175].nic.phy80211p 	busyTime 	0
scalar MyScenario.node[175].nic.mac1609_4 	ReceivedUnicastPackets 	0
scalar MyScenario.node[175].nic.mac1609_4 	ReceivedBroadcasts 	0
scalar MyScenario.node[175].nic.mac1609_4 	SentPackets 	0
scalar MyScenario.node[175].nic.mac1609_4 	SNIRLostPackets 	0
scalar MyScenario.node[175].nic.mac1609_4 	RXTXLostPackets 	0
scalar MyScenario.node[175].nic.mac1609_4 	TotalLostPackets 	0
scalar MyScenario.node[175].nic.mac1609_4 	DroppedPacketsInMac 	0
scalar MyScenario.node[175].nic.mac1609_4 	TooLittleTime 	0
scalar MyScenario.node[175].nic.mac1609_4 	TimesIntoBackoff 	0
scalar MyScenario.node[175].nic.mac1609_4 	SlotsBackoff 	0
scalar MyScenario.node[175].nic.mac1609_4 	NumInternalContention 	0
scalar MyScenario.node[175].nic.mac1609_4 	totalBusyTime 	0
scalar MyScenario.node[175].veinsmobility 	startTime 	1
scalar MyScenario.node[175].veinsmobility 	totalTime 	41
scalar MyScenario.node[175].veinsmobility 	stopTime 	43
scalar MyScenario.node[175].veinsmobility 	minSpeed 	7.843396649791e-07
scalar MyScenario.node[175].veinsmobility 	maxSpeed 	13.854480436398
scalar MyScenario.node[175].veinsmobility 	totalDistance 	270.76893350947
scalar MyScenario.node[175].veinsmobility 	totalCO2Emission 	106.32893906109
scalar MyScenario.node[249].appl 	generatedWSMs 	0
scalar MyScenario.node[249].appl 	receivedWSMs 	0
scalar MyScenario.node[249].appl 	generatedBSMs 	0
scalar MyScenario.node[249].appl 	receivedBSMs 	0
scalar MyScenario.node[249].appl 	generatedWSAs 	0
scalar MyScenario.node[249].appl 	receivedWSAs 	0
scalar MyScenario.node[249].nic.phy80211p 	busyTime 	0
scalar MyScenario.node[249].nic.mac1609_4 	ReceivedUnicastPackets 	0
scalar MyScenario.node[249].nic.mac1609_4 	ReceivedBroadcasts 	0
scalar MyScenario.node[249].nic.mac1609_4 	SentPackets 	0
scalar MyScenario.node[249].nic.mac1609_4 	SNIRLostPackets 	0
scalar MyScenario.node[249].nic.mac1609_4 	RXTXLostPackets 	0
scalar MyScenario.node[249].nic.mac1609_4 	TotalLostPackets 	0
scalar MyScenario.node[249].nic.mac1609_4 	DroppedPacketsInMac 	0
scalar MyScenario.node[249].nic.mac1609_4 	TooLittleTime 	0
scalar MyScenario.node[249].nic.mac1609_4 	TimesIntoBackoff 	0
scalar MyScenario.node[249].nic.mac1609_4 	SlotsBackoff 	0
scalar MyScenario.node[249].nic.mac1609_4 	NumInternalContention 	0
scalar MyScenario.node[249].nic.mac1609_4 	totalBusyTime 	0
scalar MyScenario.node[249].veinsmobility 	startTime 	4
scalar MyScenario.node[249].veinsmobility 	totalTime 	39
scalar MyScenario.node[249].veinsmobility 	stopTime 	44
scalar MyScenario.node[249].veinsmobility 	minSpeed 	2.5260206505656
scalar MyScenario.node[249].veinsmobility 	maxSpeed 	13.852332069399
scalar MyScenario.node[249].veinsmobility 	totalDistance 	474.14983684015
scalar MyScenario.node[249].veinsmobility 	totalCO2Emission 	105.62647857245
scalar MyScenario.node[50].appl 	generatedWSMs 	1
scalar MyScenario.node[50].appl 	receivedWSMs 	1
scalar MyScenario.node[50].appl 	generatedBSMs 	0
scalar MyScenario.node[50].appl 	receivedBSMs 	0
scalar MyScenario.node[50].appl 	generatedWSAs 	0
scalar MyScenario.node[50].appl 	receivedWSAs 	0
scalar MyScenario.node[50].nic.phy80211p 	busyTime 	9.7116279069767e-05
scalar MyScenario.node[50].nic.mac1609_4 	ReceivedUnicastPackets 	0
scalar MyScenario.node[50].nic.mac1609_4 	ReceivedBroadcasts 	1
scalar MyScenario.node[50].nic.mac1609_4 	SentPackets 	1
scalar MyScenario.node[50].nic.mac1609_4 	SNIRLostPackets 	17
scalar MyScenario.node[50].nic.mac1609_4 	RXTXLostPackets 	12
scalar MyScenario.node[50].nic.mac1609_4 	TotalLostPackets 	29
scalar MyScenario.node[50].nic.mac1609_4 	DroppedPacketsInMac 	0
scalar MyScenario.node[50].nic.mac1609_4 	TooLittleTime 	0
scalar MyScenario.node[50].nic.mac1609_4 	TimesIntoBackoff 	1
scalar MyScenario.node[50].nic.mac1609_4 	SlotsBackoff 	0
scalar MyScenario.node[50].nic.mac1609_4 	NumInternalContention 	0
scalar MyScenario.node[50].nic.mac1609_4 	totalBusyTime 	0.00116110338
scalar MyScenario.node[50].veinsmobility 	startTime 	1
scalar MyScenario.node[50].veinsmobility 	totalTime 	42
scalar MyScenario.node[50].veinsmobility 	stopTime 	44
scalar MyScenario.node[50].veinsmobility 	minSpeed 	2.4269373215036
scalar MyScenario.node[50].veinsmobility 	maxSpeed 	13.869305089139
scalar MyScenario.node[50].veinsmobility 	totalDistance 	470.20574529482
scalar MyScenario.node[50].veinsmobility 	totalCO2Emission 	143.78044040411
scalar MyScenario.node[270].appl 	generatedWSMs 	0
scalar MyScenario.node[270].appl 	receivedWSMs 	0
scalar MyScenario.node[270].appl 	generatedBSMs 	0
scalar MyScenario.node[270].appl 	receivedBSMs 	0
scalar MyScenario.node[270].appl 	generatedWSAs 	0
scalar MyScenario.node[270].appl 	receivedWSAs 	0
scalar MyScenario.node[270].nic.phy80211p 	busyTime 	1.16e-05
scalar MyScenario.node[270].nic.mac1609_4 	ReceivedUnicastPackets 	0
scalar MyScenario.node[270].nic.mac1609_4 	ReceivedBroadcasts 	0
scalar MyScenario.node[270].nic.mac1609_4 	SentPackets 	0
scalar MyScenario.node[270].nic.mac1609_4 	SNIRLostPackets 	2
scalar MyScenario.node[270].nic.mac1609_4 	RXTXLostPackets 	0
scalar MyScenario.node[270].nic.mac1609_4 	TotalLostPackets 	2
scalar MyScenario.node[270].nic.mac1609_4 	DroppedPacketsInMac 	0
scalar MyScenario.node[270].nic.mac1609_4 	TooLittleTime 	0
scalar MyScenario.node[270].nic.mac1609_4 	TimesIntoBackoff 	0
scalar MyScenario.node[270].nic.mac1609_4 	SlotsBackoff 	0
scalar MyScenario.node[270].nic.mac1609_4 	NumInternalContention 	0
scalar MyScenario.node[270].nic.mac1609_4 	totalBusyTime 	0.000232
scalar MyScenario.node[270].veinsmobility 	startTime 	4
scalar MyScenario.node[270].veinsmobility 	totalTime 	39
scalar MyScenario.node[270].veinsmobility 	stopTime 	44
scalar MyScenario.node[270].veinsmobility 	minSpeed 	2.3422106776387
scalar MyScenario.node[270].veinsmobility 	maxSpeed 	13.881536804792
scalar MyScenario.node[270].veinsmobility 	totalDistance 	477.3409717398
scalar MyScenario.node[270].veinsmobility 	totalCO2Emission 	106.71837672766
scalar MyScenario.node[343].appl 	generatedWSMs 	0
scalar MyScenario.node[343].appl 	receivedWSMs 	0
scalar MyScenario.node[343].appl 	generatedBSMs 	0
scalar MyScenario.node[343].appl 	receivedBSMs 	0
scalar MyScenario.node[343].appl 	generatedWSAs 	0
scalar MyScenario.node[343].appl 	receivedWSAs 	0
scalar MyScenario.node[343].nic.phy80211p 	busyTime 	4.06e-05
scalar MyScenario.node[343].nic.mac1609_4 	ReceivedUnicastPackets 	0
scalar MyScenario.node[343].nic.mac1609_4 	ReceivedBroadcasts 	0
scalar MyScenario.node[343].nic.mac1609_4 	SentPackets 	0
scalar MyScenario.node[343].nic.mac1609_4 	SNIRLostPackets 	7
scalar MyScenario.node[343].nic.mac1609_4 	RXTXLostPackets 	0
scalar MyScenario.node[343].nic.mac1609_4 	TotalLostPackets 	7
scalar MyScenario.node[343].nic.mac1609_4 	DroppedPacketsInMac 	0
scalar MyScenario.node[343].nic.mac1609_4 	TooLittleTime 	0
scalar MyScenario.node[343].nic.mac1609_4 	TimesIntoBackoff 	0
scalar MyScenario.node[343].nic.mac1609_4 	SlotsBackoff 	0
scalar MyScenario.node[343].nic.mac1609_4 	NumInternalContention 	0
scalar MyScenario.node[343].nic.mac1609_4 	totalBusyTime 	0.000464
scalar MyScenario.node[343].veinsmobility 	startTime 	4
scalar MyScenario.node[343].veinsmobility 	totalTime 	39
scalar MyScenario.node[343].veinsmobility 	stopTime 	44
scalar MyScenario.node[343].veinsmobility 	minSpeed 	1.8260000292445
scalar MyScenario.node[343].veinsmobility 	maxSpeed 	13.87160814763
scalar MyScenario.node[343].veinsmobility 	totalDistance 	474.99613568812
scalar MyScenario.node[343].veinsmobility 	totalCO2Emission 	106.57057091835
scalar MyScenario.node[31].appl 	generatedWSMs 	0
scalar MyScenario.node[31].appl 	receivedWSMs 	0
scalar MyScenario.node[31].appl 	generatedBSMs 	0
scalar MyScenario.node[31].appl 	receivedBSMs 	0
scalar MyScenario.node[31].appl 	generatedWSAs 	0
scalar MyScenario.node[31].appl 	receivedWSAs 	0
scalar MyScenario.node[31].nic.phy80211p 	busyTime 	3.7767441860465e-05
scalar MyScenario.node[31].nic.mac1609_4 	ReceivedUnicastPackets 	0
scalar MyScenario.node[31].nic.mac1609_4 	ReceivedBroadcasts 	0
scalar MyScenario.node[31].nic.mac1609_4 	SentPackets 	0
scalar MyScenario.node[31].nic.mac1609_4 	SNIRLostPackets 	7
scalar MyScenario.node[31].nic.mac1609_4 	RXTXLostPackets 	0
scalar MyScenario.node[31].nic.mac1609_4 	TotalLostPackets 	7
scalar MyScenario.node[31].nic.mac1609_4 	DroppedPacketsInMac 	0
scalar MyScenario.node[31].nic.mac1609_4 	TooLittleTime 	0
scalar MyScenario.node[31].nic.mac1609_4 	TimesIntoBackoff 	0
scalar MyScenario.node[31].nic.mac1609_4 	SlotsBackoff 	0
scalar MyScenario.node[31].nic.mac1609_4 	NumInternalContention 	0
scalar MyScenario.node[31].nic.mac1609_4 	totalBusyTime 	0.000928
scalar MyScenario.node[31].veinsmobility 	startTime 	1
scalar MyScenario.node[31].veinsmobility 	totalTime 	42
scalar MyScenario.node[31].veinsmobility 	stopTime 	44
scalar MyScenario.node[31].veinsmobility 	minSpeed 	2.434502867586
scalar MyScenario.node[31].veinsmobility 	maxSpeed 	13.84599230038
scalar MyScenario.node[31].veinsmobility 	totalDistance 	482.98572818793
scalar MyScenario.node[31].veinsmobility 	totalCO2Emission 	122.6953381734
scalar MyScenario.node[272].appl 	generatedWSMs 	0
scalar MyScenario.node[272].appl 	receivedWSMs 	0
scalar MyScenario.node[272].appl 	generatedBSMs 	0
scalar MyScenario.node[272].appl 	receivedBSMs 	0
scalar MyScenario.node[272].appl 	generatedWSAs 	0
scalar MyScenario.node[272].appl 	receivedWSAs 	0
scalar MyScenario.node[272].nic.phy80211p 	busyTime 	0
scalar MyScenario.node[272].nic.mac1609_4 	ReceivedUnicastPackets 	0
scalar MyScenario.node[272].nic.mac1609_4 	ReceivedBroadcasts 	0
scalar MyScenario.node[272].nic.mac1609_4 	SentPackets 	0
scalar MyScenario.node[272].nic.mac1609_4 	SNIRLostPackets 	0
scalar MyScenario.node[272].nic.mac1609_4 	RXTXLostPackets 	0
scalar MyScenario.node[272].nic.mac1609_4 	TotalLostPackets 	0
scalar MyScenario.node[272].nic.mac1609_4 	DroppedPacketsInMac 	0
scalar MyScenario.node[272].nic.mac1609_4 	TooLittleTime 	0
scalar MyScenario.node[272].nic.mac1609_4 	TimesIntoBackoff 	0
scalar MyScenario.node[272].nic.mac1609_4 	SlotsBackoff 	0
scalar MyScenario.node[272].nic.mac1609_4 	NumInternalContention 	0
scalar MyScenario.node[272].nic.mac1609_4 	totalBusyTime 	0
scalar MyScenario.node[272].veinsmobility 	startTime 	4
scalar MyScenario.node[272].veinsmobility 	totalTime 	40
scalar MyScenario.node[272].veinsmobility 	stopTime 	45
scalar MyScenario.node[272].veinsmobility 	minSpeed 	0.084572351306036
scalar MyScenario.node[272].veinsmobility 	maxSpeed 	13.874036349403
scalar MyScenario.node[272].veinsmobility 	totalDistance 	377.31255195034
scalar MyScenario.node[272].veinsmobility 	totalCO2Emission 	104.2720458304
scalar MyScenario.node[344].appl 	generatedWSMs 	0
scalar MyScenario.node[344].appl 	receivedWSMs 	0
scalar MyScenario.node[344].appl 	generatedBSMs 	0
scalar MyScenario.node[344].appl 	receivedBSMs 	0
scalar MyScenario.node[344].appl 	generatedWSAs 	0
scalar MyScenario.node[344].appl 	receivedWSAs 	0
scalar MyScenario.node[344].nic.phy80211p 	busyTime 	0
scalar MyScenario.node[344].nic.mac1609_4 	ReceivedUnicastPackets 	0
scalar MyScenario.node[344].nic.mac1609_4 	ReceivedBroadcasts 	0
scalar MyScenario.node[344].nic.mac1609_4 	SentPackets 	0
scalar MyScenario.node[344].nic.mac1609_4 	SNIRLostPackets 	0
scalar MyScenario.node[344].nic.mac1609_4 	RXTXLostPackets 	0
scalar MyScenario.node[344].nic.mac1609_4 	TotalLostPackets 	0
scalar MyScenario.node[344].nic.mac1609_4 	DroppedPacketsInMac 	0
scalar MyScenario.node[344].nic.mac1609_4 	TooLittleTime 	0
scalar MyScenario.node[344].nic.mac1609_4 	TimesIntoBackoff 	0
scalar MyScenario.node[344].nic.mac1609_4 	SlotsBackoff 	0
scalar MyScenario.node[344].nic.mac1609_4 	NumInternalContention 	0
scalar MyScenario.node[344].nic.mac1609_4 	totalBusyTime 	0
scalar MyScenario.node[344].veinsmobility 	startTime 	4
scalar MyScenario.node[344].veinsmobility 	totalTime 	41
scalar MyScenario.node[344].veinsmobility 	stopTime 	46
scalar MyScenario.node[344].veinsmobility 	minSpeed 	1.6260558056878
scalar MyScenario.node[344].veinsmobility 	maxSpeed 	13.777514354023
scalar MyScenario.node[344].veinsmobility 	totalDistance 	475.38856947712
scalar MyScenario.node[344].veinsmobility 	totalCO2Emission 	133.33443697412
scalar MyScenario.node[382].appl 	generatedWSMs 	0
scalar MyScenario.node[382].appl 	receivedWSMs 	0
scalar MyScenario.node[382].appl 	generatedBSMs 	0
scalar MyScenario.node[382].appl 	receivedBSMs 	0
scalar MyScenario.node[382].appl 	generatedWSAs 	0
scalar MyScenario.node[382].appl 	receivedWSAs 	0
scalar MyScenario.node[382].nic.phy80211p 	busyTime 	7.7333333333333e-05
scalar MyScenario.node[382].nic.mac1609_4 	ReceivedUnicastPackets 	0
scalar MyScenario.node[382].nic.mac1609_4 	ReceivedBroadcasts 	0
scalar MyScenario.node[382].nic.mac1609_4 	SentPackets 	0
scalar MyScenario.node[382].nic.mac1609_4 	SNIRLostPackets 	14
scalar MyScenario.node[382].nic.mac1609_4 	RXTXLostPackets 	0
scalar MyScenario.node[382].nic.mac1609_4 	TotalLostPackets 	14
scalar MyScenario.node[382].nic.mac1609_4 	DroppedPacketsInMac 	0
scalar MyScenario.node[382].nic.mac1609_4 	TooLittleTime 	0
scalar MyScenario.node[382].nic.mac1609_4 	TimesIntoBackoff 	0
scalar MyScenario.node[382].nic.mac1609_4 	SlotsBackoff 	0
scalar MyScenario.node[382].nic.mac1609_4 	NumInternalContention 	0
scalar MyScenario.node[382].nic.mac1609_4 	totalBusyTime 	0.000232
scalar MyScenario.node[382].veinsmobility 	startTime 	7
scalar MyScenario.node[382].veinsmobility 	totalTime 	41
scalar MyScenario.node[382].veinsmobility 	stopTime 	49
scalar MyScenario.node[382].veinsmobility 	minSpeed 	0.031974794560043
scalar MyScenario.node[382].veinsmobility 	maxSpeed 	13.782682396425
scalar MyScenario.node[382].veinsmobility 	totalDistance 	374.57708853155
scalar MyScenario.node[382].veinsmobility 	totalCO2Emission 	141.01727337195
scalar MyScenario.node[255].appl 	generatedWSMs 	0
scalar MyScenario.node[255].appl 	receivedWSMs 	0
scalar MyScenario.node[255].appl 	generatedBSMs 	0
scalar MyScenario.node[255].appl 	receivedBSMs 	0
scalar MyScenario.node[255].appl 	generatedWSAs 	0
scalar MyScenario.node[255].appl 	receivedWSAs 	0
scalar MyScenario.node[255].nic.phy80211p 	busyTime 	0
scalar MyScenario.node[255].nic.mac1609_4 	ReceivedUnicastPackets 	0
scalar MyScenario.node[255].nic.mac1609_4 	ReceivedBroadcasts 	0
scalar MyScenario.node[255].nic.mac1609_4 	SentPackets 	0
scalar MyScenario.node[255].nic.mac1609_4 	SNIRLostPackets 	0
scalar MyScenario.node[255].nic.mac1609_4 	RXTXLostPackets 	0
scalar MyScenario.node[255].nic.mac1609_4 	TotalLostPackets 	0
scalar MyScenario.node[255].nic.mac1609_4 	DroppedPacketsInMac 	0
scalar MyScenario.node[255].nic.mac1609_4 	TooLittleTime 	0
scalar MyScenario.node[255].nic.mac1609_4 	TimesIntoBackoff 	0
scalar MyScenario.node[255].nic.mac1609_4 	SlotsBackoff 	0
scalar MyScenario.node[255].nic.mac1609_4 	NumInternalContention 	0
scalar MyScenario.node[255].nic.mac1609_4 	totalBusyTime 	0
scalar MyScenario.node[255].veinsmobility 	startTime 	4
scalar MyScenario.node[255].veinsmobility 	totalTime 	44
scalar MyScenario.node[255].veinsmobility 	stopTime 	49
scalar MyScenario.node[255].veinsmobility 	minSpeed 	1.6816543339422
scalar MyScenario.node[255].veinsmobility 	maxSpeed 	13.861101585976
scalar MyScenario.node[255].veinsmobility 	totalDistance 	475.33176599631
scalar MyScenario.node[255].veinsmobility 	totalCO2Emission 	144.59522823824
scalar MyScenario.node[73].appl 	generatedWSMs 	1
scalar MyScenario.node[73].appl 	receivedWSMs 	2
scalar MyScenario.node[73].appl 	generatedBSMs 	0
scalar MyScenario.node[73].appl 	receivedBSMs 	0
scalar MyScenario.node[73].appl 	generatedWSAs 	0
scalar MyScenario.node[73].appl 	receivedWSAs 	0
scalar MyScenario.node[73].nic.phy80211p 	busyTime 	0.00019885714285714
scalar MyScenario.node[73].nic.mac1609_4 	ReceivedUnicastPackets 	0
scalar MyScenario.node[73].nic.mac1609_4 	ReceivedBroadcasts 	2
scalar MyScenario.node[73].nic.mac1609_4 	SentPackets 	1
scalar MyScenario.node[73].nic.mac1609_4 	SNIRLostPackets 	40
scalar MyScenario.node[73].nic.mac1609_4 	RXTXLostPackets 	0
scalar MyScenario.node[73].nic.mac1609_4 	TotalLostPackets 	40
scalar MyScenario.node[73].nic.mac1609_4 	DroppedPacketsInMac 	0
scalar MyScenario.node[73].nic.mac1609_4 	TooLittleTime 	0
scalar MyScenario.node[73].nic.mac1609_4 	TimesIntoBackoff 	1
scalar MyScenario.node[73].nic.mac1609_4 	SlotsBackoff 	3
scalar MyScenario.node[73].nic.mac1609_4 	NumInternalContention 	0
scalar MyScenario.node[73].nic.mac1609_4 	totalBusyTime 	0.001857110224
scalar MyScenario.node[73].veinsmobility 	startTime 	1
scalar MyScenario.node[73].veinsmobility 	totalTime 	48
scalar MyScenario.node[73].veinsmobility 	stopTime 	50
scalar MyScenario.node[73].veinsmobility 	minSpeed 	1.5515084654326
scalar MyScenario.node[73].veinsmobility 	maxSpeed 	13.837675742665
scalar MyScenario.node[73].veinsmobility 	totalDistance 	579.70570617497
scalar MyScenario.node[73].veinsmobility 	totalCO2Emission 	138.89396988367
scalar MyScenario.node[8].appl 	generatedWSMs 	0
scalar MyScenario.node[8].appl 	receivedWSMs 	0
scalar MyScenario.node[8].appl 	generatedBSMs 	0
scalar MyScenario.node[8].appl 	receivedBSMs 	0
scalar MyScenario.node[8].appl 	generatedWSAs 	0
scalar MyScenario.node[8].appl 	receivedWSAs 	0
scalar MyScenario.node[8].nic.phy80211p 	busyTime 	0
scalar MyScenario.node[8].nic.mac1609_4 	ReceivedUnicastPackets 	0
scalar MyScenario.node[8].nic.mac1609_4 	ReceivedBroadcasts 	0
scalar MyScenario.node[8].nic.mac1609_4 	SentPackets 	0
scalar MyScenario.node[8].nic.mac1609_4 	SNIRLostPackets 	0
scalar MyScenario.node[8].nic.mac1609_4 	RXTXLostPackets 	0
[...]
scalar MyScenario.node[64].nic.mac1609_4 	RXTXLostPackets 	14
scalar MyScenario.node[64].nic.mac1609_4 	TotalLostPackets 	31
scalar MyScenario.node[64].nic.mac1609_4 	DroppedPacketsInMac 	0
scalar MyScenario.node[64].nic.mac1609_4 	TooLittleTime 	0
scalar MyScenario.node[64].nic.mac1609_4 	TimesIntoBackoff 	1
scalar MyScenario.node[64].nic.mac1609_4 	SlotsBackoff 	0
scalar MyScenario.node[64].nic.mac1609_4 	NumInternalContention 	0
scalar MyScenario.node[64].nic.mac1609_4 	totalBusyTime 	0.001857148948
scalar MyScenario.node[64].veinsmobility 	startTime 	1
scalar MyScenario.node[64].veinsmobility 	totalTime 	166
scalar MyScenario.node[64].veinsmobility 	stopTime 	168
scalar MyScenario.node[64].veinsmobility 	minSpeed 	2.5319819610997e-12
scalar MyScenario.node[64].veinsmobility 	maxSpeed 	13.874429119169
scalar MyScenario.node[64].veinsmobility 	totalDistance 	881.46948565913
scalar MyScenario.node[64].veinsmobility 	totalCO2Emission 	407.05092774092
scalar MyScenario.node[282].appl 	generatedWSMs 	0
scalar MyScenario.node[282].appl 	receivedWSMs 	0
scalar MyScenario.node[282].appl 	generatedBSMs 	0
scalar MyScenario.node[282].appl 	receivedBSMs 	0
scalar MyScenario.node[282].appl 	generatedWSAs 	0
scalar MyScenario.node[282].appl 	receivedWSAs 	0
scalar MyScenario.node[282].nic.phy80211p 	busyTime 	0
scalar MyScenario.node[282].nic.mac1609_4 	ReceivedUnicastPackets 	0
scalar MyScenario.node[282].nic.mac1609_4 	ReceivedBroadcasts 	0
scalar MyScenario.node[282].nic.mac1609_4 	SentPackets 	0
scalar MyScenario.node[282].nic.mac1609_4 	SNIRLostPackets 	0
scalar MyScenario.node[282].nic.mac1609_4 	RXTXLostPackets 	0
scalar MyScenario.node[282].nic.mac1609_4 	TotalLostPackets 	0
scalar MyScenario.node[282].nic.mac1609_4 	DroppedPacketsInMac 	0
scalar MyScenario.node[282].nic.mac1609_4 	TooLittleTime 	0
scalar MyScenario.node[282].nic.mac1609_4 	TimesIntoBackoff 	0
scalar MyScenario.node[282].nic.mac1609_4 	SlotsBackoff 	0
scalar MyScenario.node[282].nic.mac1609_4 	NumInternalContention 	0
scalar MyScenario.node[282].nic.mac1609_4 	totalBusyTime 	0
scalar MyScenario.node[282].veinsmobility 	startTime 	4
scalar MyScenario.node[282].veinsmobility 	totalTime 	166
scalar MyScenario.node[282].veinsmobility 	stopTime 	171
scalar MyScenario.node[282].veinsmobility 	minSpeed 	1.2253294814092e-14
scalar MyScenario.node[282].veinsmobility 	maxSpeed 	13.89297241678
scalar MyScenario.node[282].veinsmobility 	totalDistance 	1567.0418000924
scalar MyScenario.node[282].veinsmobility 	totalCO2Emission 	497.25532876531
scalar MyScenario.node[386].appl 	generatedWSMs 	0
scalar MyScenario.node[386].appl 	receivedWSMs 	0
scalar MyScenario.node[386].appl 	generatedBSMs 	0
scalar MyScenario.node[386].appl 	receivedBSMs 	0
scalar MyScenario.node[386].appl 	generatedWSAs 	0
scalar MyScenario.node[386].appl 	receivedWSAs 	0
scalar MyScenario.node[386].nic.phy80211p 	busyTime 	5.5238095238095e-06
scalar MyScenario.node[386].nic.mac1609_4 	ReceivedUnicastPackets 	0
scalar MyScenario.node[386].nic.mac1609_4 	ReceivedBroadcasts 	0
scalar MyScenario.node[386].nic.mac1609_4 	SentPackets 	0
scalar MyScenario.node[386].nic.mac1609_4 	SNIRLostPackets 	4
scalar MyScenario.node[386].nic.mac1609_4 	RXTXLostPackets 	0
scalar MyScenario.node[386].nic.mac1609_4 	TotalLostPackets 	4
scalar MyScenario.node[386].nic.mac1609_4 	DroppedPacketsInMac 	0
scalar MyScenario.node[386].nic.mac1609_4 	TooLittleTime 	0
scalar MyScenario.node[386].nic.mac1609_4 	TimesIntoBackoff 	0
scalar MyScenario.node[386].nic.mac1609_4 	SlotsBackoff 	0
scalar MyScenario.node[386].nic.mac1609_4 	NumInternalContention 	0
scalar MyScenario.node[386].nic.mac1609_4 	totalBusyTime 	0.000232
scalar MyScenario.node[386].veinsmobility 	startTime 	10
scalar MyScenario.node[386].veinsmobility 	totalTime 	167
scalar MyScenario.node[386].veinsmobility 	stopTime 	178
scalar MyScenario.node[386].veinsmobility 	minSpeed 	0
scalar MyScenario.node[386].veinsmobility 	maxSpeed 	13.887552774791
scalar MyScenario.node[386].veinsmobility 	totalDistance 	1068.9402288867
scalar MyScenario.node[386].veinsmobility 	totalCO2Emission 	388.1553302658
scalar MyScenario.node[177].appl 	generatedWSMs 	1
scalar MyScenario.node[177].appl 	receivedWSMs 	2
scalar MyScenario.node[177].appl 	generatedBSMs 	0
scalar MyScenario.node[177].appl 	receivedBSMs 	0
scalar MyScenario.node[177].appl 	generatedWSAs 	0
scalar MyScenario.node[177].appl 	receivedWSAs 	0
scalar MyScenario.node[177].nic.phy80211p 	busyTime 	2.0737430167598e-05
scalar MyScenario.node[177].nic.mac1609_4 	ReceivedUnicastPackets 	0
scalar MyScenario.node[177].nic.mac1609_4 	ReceivedBroadcasts 	2
scalar MyScenario.node[177].nic.mac1609_4 	SentPackets 	1
scalar MyScenario.node[177].nic.mac1609_4 	SNIRLostPackets 	14
scalar MyScenario.node[177].nic.mac1609_4 	RXTXLostPackets 	14
scalar MyScenario.node[177].nic.mac1609_4 	TotalLostPackets 	28
scalar MyScenario.node[177].nic.mac1609_4 	DroppedPacketsInMac 	0
scalar MyScenario.node[177].nic.mac1609_4 	TooLittleTime 	0
scalar MyScenario.node[177].nic.mac1609_4 	TimesIntoBackoff 	1
scalar MyScenario.node[177].nic.mac1609_4 	SlotsBackoff 	0
scalar MyScenario.node[177].nic.mac1609_4 	NumInternalContention 	0
scalar MyScenario.node[177].nic.mac1609_4 	totalBusyTime 	0.001161161304
scalar MyScenario.node[177].veinsmobility 	startTime 	1
scalar MyScenario.node[177].veinsmobility 	totalTime 	178
scalar MyScenario.node[177].veinsmobility 	stopTime 	180
scalar MyScenario.node[177].veinsmobility 	minSpeed 	7.5294600184926e-13
scalar MyScenario.node[177].veinsmobility 	maxSpeed 	13.865691043157
scalar MyScenario.node[177].veinsmobility 	totalDistance 	1663.2558005655
scalar MyScenario.node[177].veinsmobility 	totalCO2Emission 	505.65671065287
scalar MyScenario.node[396].appl 	generatedWSMs 	0
scalar MyScenario.node[396].appl 	receivedWSMs 	0
scalar MyScenario.node[396].appl 	generatedBSMs 	0
scalar MyScenario.node[396].appl 	receivedBSMs 	0
scalar MyScenario.node[396].appl 	generatedWSAs 	0
scalar MyScenario.node[396].appl 	receivedWSAs 	0
scalar MyScenario.node[396].nic.phy80211p 	busyTime 	0
scalar MyScenario.node[396].nic.mac1609_4 	ReceivedUnicastPackets 	0
scalar MyScenario.node[396].nic.mac1609_4 	ReceivedBroadcasts 	0
scalar MyScenario.node[396].nic.mac1609_4 	SentPackets 	0
scalar MyScenario.node[396].nic.mac1609_4 	SNIRLostPackets 	0
scalar MyScenario.node[396].nic.mac1609_4 	RXTXLostPackets 	0
scalar MyScenario.node[396].nic.mac1609_4 	TotalLostPackets 	0
scalar MyScenario.node[396].nic.mac1609_4 	DroppedPacketsInMac 	0
scalar MyScenario.node[396].nic.mac1609_4 	TooLittleTime 	0
scalar MyScenario.node[396].nic.mac1609_4 	TimesIntoBackoff 	0
scalar MyScenario.node[396].nic.mac1609_4 	SlotsBackoff 	0
scalar MyScenario.node[396].nic.mac1609_4 	NumInternalContention 	0
scalar MyScenario.node[396].nic.mac1609_4 	totalBusyTime 	0
scalar MyScenario.node[396].veinsmobility 	startTime 	12
scalar MyScenario.node[396].veinsmobility 	totalTime 	167
scalar MyScenario.node[396].veinsmobility 	stopTime 	180
scalar MyScenario.node[396].veinsmobility 	minSpeed 	0
scalar MyScenario.node[396].veinsmobility 	maxSpeed 	13.82407513021
scalar MyScenario.node[396].veinsmobility 	totalDistance 	967.83843568214
scalar MyScenario.node[396].veinsmobility 	totalCO2Emission 	378.04991865239
scalar MyScenario.node[210].appl 	generatedWSMs 	1
scalar MyScenario.node[210].appl 	receivedWSMs 	4
scalar MyScenario.node[210].appl 	generatedBSMs 	0
scalar MyScenario.node[210].appl 	receivedBSMs 	0
scalar MyScenario.node[210].appl 	generatedWSAs 	0
scalar MyScenario.node[210].appl 	receivedWSAs 	0
scalar MyScenario.node[210].nic.phy80211p 	busyTime 	2.4488888888889e-05
scalar MyScenario.node[210].nic.mac1609_4 	ReceivedUnicastPackets 	0
scalar MyScenario.node[210].nic.mac1609_4 	ReceivedBroadcasts 	4
scalar MyScenario.node[210].nic.mac1609_4 	SentPackets 	1
scalar MyScenario.node[210].nic.mac1609_4 	SNIRLostPackets 	15
scalar MyScenario.node[210].nic.mac1609_4 	RXTXLostPackets 	16
scalar MyScenario.node[210].nic.mac1609_4 	TotalLostPackets 	31
scalar MyScenario.node[210].nic.mac1609_4 	DroppedPacketsInMac 	0
scalar MyScenario.node[210].nic.mac1609_4 	TooLittleTime 	0
scalar MyScenario.node[210].nic.mac1609_4 	TimesIntoBackoff 	1
scalar MyScenario.node[210].nic.mac1609_4 	SlotsBackoff 	3
scalar MyScenario.node[210].nic.mac1609_4 	NumInternalContention 	0
scalar MyScenario.node[210].nic.mac1609_4 	totalBusyTime 	0.002089027598
scalar MyScenario.node[210].veinsmobility 	startTime 	1
scalar MyScenario.node[210].veinsmobility 	totalTime 	179
scalar MyScenario.node[210].veinsmobility 	stopTime 	181
scalar MyScenario.node[210].veinsmobility 	minSpeed 	1.5283462281555e-05
scalar MyScenario.node[210].veinsmobility 	maxSpeed 	13.849986618781
scalar MyScenario.node[210].veinsmobility 	totalDistance 	1074.4195510123
scalar MyScenario.node[210].veinsmobility 	totalCO2Emission 	445.2623566482
scalar MyScenario.node[309].appl 	generatedWSMs 	0
scalar MyScenario.node[309].appl 	receivedWSMs 	0
scalar MyScenario.node[309].appl 	generatedBSMs 	0
scalar MyScenario.node[309].appl 	receivedBSMs 	0
scalar MyScenario.node[309].appl 	generatedWSAs 	0
scalar MyScenario.node[309].appl 	receivedWSAs 	0
scalar MyScenario.node[309].nic.phy80211p 	busyTime 	0
scalar MyScenario.node[309].nic.mac1609_4 	ReceivedUnicastPackets 	0
scalar MyScenario.node[309].nic.mac1609_4 	ReceivedBroadcasts 	0
scalar MyScenario.node[309].nic.mac1609_4 	SentPackets 	0
scalar MyScenario.node[309].nic.mac1609_4 	SNIRLostPackets 	0
scalar MyScenario.node[309].nic.mac1609_4 	RXTXLostPackets 	0
scalar MyScenario.node[309].nic.mac1609_4 	TotalLostPackets 	0
scalar MyScenario.node[309].nic.mac1609_4 	DroppedPacketsInMac 	0
scalar MyScenario.node[309].nic.mac1609_4 	TooLittleTime 	0
scalar MyScenario.node[309].nic.mac1609_4 	TimesIntoBackoff 	0
scalar MyScenario.node[309].nic.mac1609_4 	SlotsBackoff 	0
scalar MyScenario.node[309].nic.mac1609_4 	NumInternalContention 	0
scalar MyScenario.node[309].nic.mac1609_4 	totalBusyTime 	0
scalar MyScenario.node[309].veinsmobility 	startTime 	4
scalar MyScenario.node[309].veinsmobility 	totalTime 	176
scalar MyScenario.node[309].veinsmobility 	stopTime 	181
scalar MyScenario.node[309].veinsmobility 	minSpeed 	1.6566309122144e-11
scalar MyScenario.node[309].veinsmobility 	maxSpeed 	13.881338372733
scalar MyScenario.node[309].veinsmobility 	totalDistance 	1265.3912400586
scalar MyScenario.node[309].veinsmobility 	totalCO2Emission 	468.23864073855
scalar MyScenario.node[332].appl 	generatedWSMs 	1
scalar MyScenario.node[332].appl 	receivedWSMs 	7
scalar MyScenario.node[332].appl 	generatedBSMs 	0
scalar MyScenario.node[332].appl 	receivedBSMs 	0
scalar MyScenario.node[332].appl 	generatedWSAs 	0
scalar MyScenario.node[332].appl 	receivedWSAs 	0
scalar MyScenario.node[332].nic.phy80211p 	busyTime 	3.6088888888889e-05
scalar MyScenario.node[332].nic.mac1609_4 	ReceivedUnicastPackets 	0
scalar MyScenario.node[332].nic.mac1609_4 	ReceivedBroadcasts 	7
scalar MyScenario.node[332].nic.mac1609_4 	SentPackets 	1
scalar MyScenario.node[332].nic.mac1609_4 	SNIRLostPackets 	21
scalar MyScenario.node[332].nic.mac1609_4 	RXTXLostPackets 	9
scalar MyScenario.node[332].nic.mac1609_4 	TotalLostPackets 	30
scalar MyScenario.node[332].nic.mac1609_4 	DroppedPacketsInMac 	0
scalar MyScenario.node[332].nic.mac1609_4 	TooLittleTime 	0
scalar MyScenario.node[332].nic.mac1609_4 	TimesIntoBackoff 	1
scalar MyScenario.node[332].nic.mac1609_4 	SlotsBackoff 	0
scalar MyScenario.node[332].nic.mac1609_4 	NumInternalContention 	0
scalar MyScenario.node[332].nic.mac1609_4 	totalBusyTime 	0.00278508026
scalar MyScenario.node[332].veinsmobility 	startTime 	4
scalar MyScenario.node[332].veinsmobility 	totalTime 	179
scalar MyScenario.node[332].veinsmobility 	stopTime 	184
scalar MyScenario.node[332].veinsmobility 	minSpeed 	1.0424838478261e-09
scalar MyScenario.node[332].veinsmobility 	maxSpeed 	13.893358361721
scalar MyScenario.node[332].veinsmobility 	totalDistance 	1556.1158363595
scalar MyScenario.node[332].veinsmobility 	totalCO2Emission 	507.76440707955
scalar MyScenario.node[89].appl 	generatedWSMs 	1
scalar MyScenario.node[89].appl 	receivedWSMs 	3
scalar MyScenario.node[89].appl 	generatedBSMs 	0
scalar MyScenario.node[89].appl 	receivedBSMs 	0
scalar MyScenario.node[89].appl 	generatedWSAs 	0
scalar MyScenario.node[89].appl 	receivedWSAs 	0
scalar MyScenario.node[89].nic.phy80211p 	busyTime 	2.2695652173913e-05
scalar MyScenario.node[89].nic.mac1609_4 	ReceivedUnicastPackets 	0
scalar MyScenario.node[89].nic.mac1609_4 	ReceivedBroadcasts 	3
scalar MyScenario.node[89].nic.mac1609_4 	SentPackets 	1
scalar MyScenario.node[89].nic.mac1609_4 	SNIRLostPackets 	15
scalar MyScenario.node[89].nic.mac1609_4 	RXTXLostPackets 	12
scalar MyScenario.node[89].nic.mac1609_4 	TotalLostPackets 	27
scalar MyScenario.node[89].nic.mac1609_4 	DroppedPacketsInMac 	0
scalar MyScenario.node[89].nic.mac1609_4 	TooLittleTime 	0
scalar MyScenario.node[89].nic.mac1609_4 	TimesIntoBackoff 	1
scalar MyScenario.node[89].nic.mac1609_4 	SlotsBackoff 	2
scalar MyScenario.node[89].nic.mac1609_4 	NumInternalContention 	0
scalar MyScenario.node[89].nic.mac1609_4 	totalBusyTime 	0.00185710651
scalar MyScenario.node[89].veinsmobility 	startTime 	1
scalar MyScenario.node[89].veinsmobility 	totalTime 	183
scalar MyScenario.node[89].veinsmobility 	stopTime 	185
scalar MyScenario.node[89].veinsmobility 	minSpeed 	1.2284397721029e-11
scalar MyScenario.node[89].veinsmobility 	maxSpeed 	13.880281779775
scalar MyScenario.node[89].veinsmobility 	totalDistance 	1063.1773913758
scalar MyScenario.node[89].veinsmobility 	totalCO2Emission 	458.50229413661
scalar MyScenario.node[330].appl 	generatedWSMs 	1
scalar MyScenario.node[330].appl 	receivedWSMs 	2
scalar MyScenario.node[330].appl 	generatedBSMs 	0
scalar MyScenario.node[330].appl 	receivedBSMs 	0
scalar MyScenario.node[330].appl 	generatedWSAs 	0
scalar MyScenario.node[330].appl 	receivedWSAs 	0
scalar MyScenario.node[330].nic.phy80211p 	busyTime 	6.3387978142077e-06
scalar MyScenario.node[330].nic.mac1609_4 	ReceivedUnicastPackets 	0
scalar MyScenario.node[330].nic.mac1609_4 	ReceivedBroadcasts 	2
scalar MyScenario.node[330].nic.mac1609_4 	SentPackets 	1
scalar MyScenario.node[330].nic.mac1609_4 	SNIRLostPackets 	3
scalar MyScenario.node[330].nic.mac1609_4 	RXTXLostPackets 	7
scalar MyScenario.node[330].nic.mac1609_4 	TotalLostPackets 	10
scalar MyScenario.node[330].nic.mac1609_4 	DroppedPacketsInMac 	0
scalar MyScenario.node[330].nic.mac1609_4 	TooLittleTime 	0
scalar MyScenario.node[330].nic.mac1609_4 	TimesIntoBackoff 	1
scalar MyScenario.node[330].nic.mac1609_4 	SlotsBackoff 	2
scalar MyScenario.node[330].nic.mac1609_4 	NumInternalContention 	0
scalar MyScenario.node[330].nic.mac1609_4 	totalBusyTime 	0.001161020534
scalar MyScenario.node[330].veinsmobility 	startTime 	4
scalar MyScenario.node[330].veinsmobility 	totalTime 	182
scalar MyScenario.node[330].veinsmobility 	stopTime 	187
scalar MyScenario.node[330].veinsmobility 	minSpeed 	2.8320483263269e-15
scalar MyScenario.node[330].veinsmobility 	maxSpeed 	13.889910945529
scalar MyScenario.node[330].veinsmobility 	totalDistance 	1361.6820162072
scalar MyScenario.node[330].veinsmobility 	totalCO2Emission 	502.57325414864
scalar MyScenario.node[411].appl 	generatedWSMs 	0
scalar MyScenario.node[411].appl 	receivedWSMs 	0
scalar MyScenario.node[411].appl 	generatedBSMs 	0
scalar MyScenario.node[411].appl 	receivedBSMs 	0
scalar MyScenario.node[411].appl 	generatedWSAs 	0
scalar MyScenario.node[411].appl 	receivedWSAs 	0
scalar MyScenario.node[411].nic.phy80211p 	busyTime 	0
scalar MyScenario.node[411].nic.mac1609_4 	ReceivedUnicastPackets 	0
scalar MyScenario.node[411].nic.mac1609_4 	ReceivedBroadcasts 	0
scalar MyScenario.node[411].nic.mac1609_4 	SentPackets 	0
scalar MyScenario.node[411].nic.mac1609_4 	SNIRLostPackets 	0
scalar MyScenario.node[411].nic.mac1609_4 	RXTXLostPackets 	0
scalar MyScenario.node[411].nic.mac1609_4 	TotalLostPackets 	0
scalar MyScenario.node[411].nic.mac1609_4 	DroppedPacketsInMac 	0
scalar MyScenario.node[411].nic.mac1609_4 	TooLittleTime 	0
scalar MyScenario.node[411].nic.mac1609_4 	TimesIntoBackoff 	0
scalar MyScenario.node[411].nic.mac1609_4 	SlotsBackoff 	0
scalar MyScenario.node[411].nic.mac1609_4 	NumInternalContention 	0
scalar MyScenario.node[411].nic.mac1609_4 	totalBusyTime 	0
scalar MyScenario.node[411].veinsmobility 	startTime 	27
scalar MyScenario.node[411].veinsmobility 	totalTime 	160
scalar MyScenario.node[411].veinsmobility 	stopTime 	188
scalar MyScenario.node[411].veinsmobility 	minSpeed 	0
scalar MyScenario.node[411].veinsmobility 	maxSpeed 	13.811388757359
scalar MyScenario.node[411].veinsmobility 	totalDistance 	1077.6048898257
scalar MyScenario.node[411].veinsmobility 	totalCO2Emission 	382.34361933998
scalar MyScenario.node[351].appl 	generatedWSMs 	0
scalar MyScenario.node[351].appl 	receivedWSMs 	0
scalar MyScenario.node[351].appl 	generatedBSMs 	0
scalar MyScenario.node[351].appl 	receivedBSMs 	0
scalar MyScenario.node[351].appl 	generatedWSAs 	0
scalar MyScenario.node[351].appl 	receivedWSAs 	0
scalar MyScenario.node[351].nic.phy80211p 	busyTime 	0
scalar MyScenario.node[351].nic.mac1609_4 	ReceivedUnicastPackets 	0
scalar MyScenario.node[351].nic.mac1609_4 	ReceivedBroadcasts 	0
scalar MyScenario.node[351].nic.mac1609_4 	SentPackets 	0
scalar MyScenario.node[351].nic.mac1609_4 	SNIRLostPackets 	0
scalar MyScenario.node[351].nic.mac1609_4 	RXTXLostPackets 	0
scalar MyScenario.node[351].nic.mac1609_4 	TotalLostPackets 	0
scalar MyScenario.node[351].nic.mac1609_4 	DroppedPacketsInMac 	0
scalar MyScenario.node[351].nic.mac1609_4 	TooLittleTime 	0
scalar MyScenario.node[351].nic.mac1609_4 	TimesIntoBackoff 	0
scalar MyScenario.node[351].nic.mac1609_4 	SlotsBackoff 	0
scalar MyScenario.node[351].nic.mac1609_4 	NumInternalContention 	0
scalar MyScenario.node[351].nic.mac1609_4 	totalBusyTime 	0
scalar MyScenario.node[351].veinsmobility 	startTime 	7
scalar MyScenario.node[351].veinsmobility 	totalTime 	185
scalar MyScenario.node[351].veinsmobility 	stopTime 	193
scalar MyScenario.node[351].veinsmobility 	minSpeed 	7.5071697651422e-14
scalar MyScenario.node[351].veinsmobility 	maxSpeed 	13.877932548081
scalar MyScenario.node[351].veinsmobility 	totalDistance 	1162.8975002871
scalar MyScenario.node[351].veinsmobility 	totalCO2Emission 	488.84155708009
scalar MyScenario.node[86].appl 	generatedWSMs 	0
scalar MyScenario.node[86].appl 	receivedWSMs 	0
scalar MyScenario.node[86].appl 	generatedBSMs 	0
scalar MyScenario.node[86].appl 	receivedBSMs 	0
scalar MyScenario.node[86].appl 	generatedWSAs 	0
scalar MyScenario.node[86].appl 	receivedWSAs 	0
scalar MyScenario.node[86].nic.phy80211p 	busyTime 	0
scalar MyScenario.node[86].nic.mac1609_4 	ReceivedUnicastPackets 	0
scalar MyScenario.node[86].nic.mac1609_4 	ReceivedBroadcasts 	0
scalar MyScenario.node[86].nic.mac1609_4 	SentPackets 	0
scalar MyScenario.node[86].nic.mac1609_4 	SNIRLostPackets 	0
scalar MyScenario.node[86].nic.mac1609_4 	RXTXLostPackets 	0
scalar MyScenario.node[86].nic.mac1609_4 	TotalLostPackets 	0
scalar MyScenario.node[86].nic.mac1609_4 	DroppedPacketsInMac 	0
scalar MyScenario.node[86].nic.mac1609_4 	TooLittleTime 	0
scalar MyScenario.node[86].nic.mac1609_4 	TimesIntoBackoff 	0
scalar MyScenario.node[86].nic.mac1609_4 	SlotsBackoff 	0
scalar MyScenario.node[86].nic.mac1609_4 	NumInternalContention 	0
scalar MyScenario.node[86].nic.mac1609_4 	totalBusyTime 	0
scalar MyScenario.node[86].veinsmobility 	startTime 	1
scalar MyScenario.node[86].veinsmobility 	totalTime 	192
scalar MyScenario.node[86].veinsmobility 	stopTime 	193
scalar MyScenario.node[86].veinsmobility 	minSpeed 	0
scalar MyScenario.node[86].veinsmobility 	maxSpeed 	13.893890649034
scalar MyScenario.node[86].veinsmobility 	totalDistance 	942.86877855025
scalar MyScenario.node[86].veinsmobility 	totalCO2Emission 	433.63552607633
