version 2
run General-39-20170829-17:53:51-8100
attr configname General
attr datetime 20170829-17:53:51
attr density 400
attr experiment General
attr inifile omnetpp.ini
attr iterationvars $density=400
attr iterationvars2 "$density=400, $repetition=9"
attr measurement $density=400
attr network com.liborio.pi.MyScenario
attr processid 8100
attr repetition 9
attr replication #9
attr resultdir results
attr runnumber 39
attr seedset 9
param **.coreDebug false
param **.debug false
param *.**.nic.mac1609_4.bitrate 6Mbps
param *.**.nic.mac1609_4.txPower 20mW
param *.**.nic.mac1609_4.useServiceChannel true
param *.**.nic.phy80211p.analogueModels "xmldoc(\"config.xml\")"
param *.**.nic.phy80211p.antenna "xmldoc(\"antenna.xml\", \"/root/Antenna[@id='monopole']\")"
param *.**.nic.phy80211p.decider "xmldoc(\"config.xml\")"
param *.**.nic.phy80211p.sensitivity -84.39dBm
param *.**.nic.phy80211p.thermalNoise -110dBm
param *.**.nic.phy80211p.usePropagationDelay true
param *.**.nic.phy80211p.useThermalNoise true
param *.annotations.draw true
param *.connectionManager.drawMaxIntfDist false
param *.connectionManager.maxInterfDist 2600m
param *.connectionManager.sendDirect true
param *.manager.autoShutdown true
param *.manager.host "\"localhost\""
param *.manager.launchConfig "xmldoc(string(${density = 100, 200, 300, 400})+\"_\"+ string(${repetition})+\".launchd.xml\")"
param *.manager.port 9999
param *.manager.updateInterval 1s
param *.node[*].appl.beaconInterval 1s
param *.node[*].appl.dataOnSch true
param *.node[*].appl.headerLength "80 bit"
param *.node[*].appl.isSource false
param *.node[*].appl.numMsgs 100
param *.node[*].appl.sendBeacons false
param *.node[*].appl.stopTrafficTime 130s
param *.node[*].appl.wsmInterval 3s
param *.node[*].applType "\"Flooding\""
param *.node[*].veinsmobility.x 0
param *.node[*].veinsmobility.y 0
param *.node[*].veinsmobility.z 1.895
param *.node[*].veinsmobilityType.debug true
param *.node[0].appl.isSource true
param *.playgroundSizeX 2500m
param *.playgroundSizeY 2500m
param *.playgroundSizeZ 50m

scalar . 	density 	400
scalar MyScenario.node[179].appl 	generatedWSMs 	1
scalar MyScenario.node[179].appl 	receivedWSMs 	4
scalar MyScenario.node[179].appl 	generatedBSMs 	0
scalar MyScenario.node[179].appl 	receivedBSMs 	0
scalar MyScenario.node[179].appl 	generatedWSAs 	0
scalar MyScenario.node[179].appl 	receivedWSAs 	0
scalar MyScenario.node[179].nic.phy80211p 	busyTime 	0.0006728
scalar MyScenario.node[179].nic.mac1609_4 	ReceivedUnicastPackets 	0
scalar MyScenario.node[179].nic.mac1609_4 	ReceivedBroadcasts 	4
scalar MyScenario.node[179].nic.mac1609_4 	SentPackets 	1
scalar MyScenario.node[179].nic.mac1609_4 	SNIRLostPackets 	25
scalar MyScenario.node[179].nic.mac1609_4 	RXTXLostPackets 	12
scalar MyScenario.node[179].nic.mac1609_4 	TotalLostPackets 	37
scalar MyScenario.node[179].nic.mac1609_4 	DroppedPacketsInMac 	0
scalar MyScenario.node[179].nic.mac1609_4 	TooLittleTime 	0
scalar MyScenario.node[179].nic.mac1609_4 	TimesIntoBackoff 	1
scalar MyScenario.node[179].nic.mac1609_4 	SlotsBackoff 	1
scalar MyScenario.node[179].nic.mac1609_4 	NumInternalContention 	0
scalar MyScenario.node[179].nic.mac1609_4 	totalBusyTime 	0.002089216421
scalar MyScenario.node[179].veinsmobility 	startTime 	1
scalar MyScenario.node[179].veinsmobility 	totalTime 	9
scalar MyScenario.node[179].veinsmobility 	stopTime 	11
scalar MyScenario.node[179].veinsmobility 	minSpeed 	2.0161260220222
scalar MyScenario.node[179].veinsmobility 	maxSpeed 	13.750771209621
scalar MyScenario.node[179].veinsmobility 	totalDistance 	83.394412293006
scalar MyScenario.node[179].veinsmobility 	totalCO2Emission 	38.041247453646
scalar MyScenario.node[116].appl 	generatedWSMs 	1
scalar MyScenario.node[116].appl 	receivedWSMs 	4
scalar MyScenario.node[116].appl 	generatedBSMs 	0
scalar MyScenario.node[116].appl 	receivedBSMs 	0
scalar MyScenario.node[116].appl 	generatedWSAs 	0
scalar MyScenario.node[116].appl 	receivedWSAs 	0
scalar MyScenario.node[116].nic.phy80211p 	busyTime 	0.0003944
scalar MyScenario.node[116].nic.mac1609_4 	ReceivedUnicastPackets 	0
scalar MyScenario.node[116].nic.mac1609_4 	ReceivedBroadcasts 	4
scalar MyScenario.node[116].nic.mac1609_4 	SentPackets 	1
scalar MyScenario.node[116].nic.mac1609_4 	SNIRLostPackets 	13
scalar MyScenario.node[116].nic.mac1609_4 	RXTXLostPackets 	22
scalar MyScenario.node[116].nic.mac1609_4 	TotalLostPackets 	35
scalar MyScenario.node[116].nic.mac1609_4 	DroppedPacketsInMac 	0
scalar MyScenario.node[116].nic.mac1609_4 	TooLittleTime 	0
scalar MyScenario.node[116].nic.mac1609_4 	TimesIntoBackoff 	1
scalar MyScenario.node[116].nic.mac1609_4 	SlotsBackoff 	1
scalar MyScenario.node[116].nic.mac1609_4 	NumInternalContention 	0
scalar MyScenario.node[116].nic.mac1609_4 	totalBusyTime 	0.001393032905
scalar MyScenario.node[116].veinsmobility 	startTime 	1
scalar MyScenario.node[116].veinsmobility 	totalTime 	9
scalar MyScenario.node[116].veinsmobility 	stopTime 	11
scalar MyScenario.node[116].veinsmobility 	minSpeed 	1.3064978629351
scalar MyScenario.node[116].veinsmobility 	maxSpeed 	13.867855886533
scalar MyScenario.node[116].veinsmobility 	totalDistance 	77.502884464129
scalar MyScenario.node[116].veinsmobility 	totalCO2Emission 	37.73234179566
scalar MyScenario.node[164].appl 	generatedWSMs 	0
scalar MyScenario.node[164].appl 	receivedWSMs 	0
scalar MyScenario.node[164].appl 	generatedBSMs 	0
scalar MyScenario.node[164].appl 	receivedBSMs 	0
scalar MyScenario.node[164].appl 	generatedWSAs 	0
scalar MyScenario.node[164].appl 	receivedWSAs 	0
scalar MyScenario.node[164].nic.phy80211p 	busyTime 	0
scalar MyScenario.node[164].nic.mac1609_4 	ReceivedUnicastPackets 	0
scalar MyScenario.node[164].nic.mac1609_4 	ReceivedBroadcasts 	0
scalar MyScenario.node[164].nic.mac1609_4 	SentPackets 	0
scalar MyScenario.node[164].nic.mac1609_4 	SNIRLostPackets 	0
scalar MyScenario.node[164].nic.mac1609_4 	RXTXLostPackets 	0
scalar MyScenario.node[164].nic.mac1609_4 	TotalLostPackets 	0
scalar MyScenario.node[164].nic.mac1609_4 	DroppedPacketsInMac 	0
scalar MyScenario.node[164].nic.mac1609_4 	TooLittleTime 	0
scalar MyScenario.node[164].nic.mac1609_4 	TimesIntoBackoff 	0
scalar MyScenario.node[164].nic.mac1609_4 	SlotsBackoff 	0
scalar MyScenario.node[164].nic.mac1609_4 	NumInternalContention 	0
scalar MyScenario.node[164].nic.mac1609_4 	totalBusyTime 	0
scalar MyScenario.node[164].veinsmobility 	startTime 	1
scalar MyScenario.node[164].veinsmobility 	totalTime 	9
scalar MyScenario.node[164].veinsmobility 	stopTime 	11
scalar MyScenario.node[164].veinsmobility 	minSpeed 	2.1330114732496
scalar MyScenario.node[164].veinsmobility 	maxSpeed 	13.728412003093
scalar MyScenario.node[164].veinsmobility 	totalDistance 	84.325192990224
scalar MyScenario.node[164].veinsmobility 	totalCO2Emission 	38.118820136503
scalar MyScenario.node[146].appl 	generatedWSMs 	0
scalar MyScenario.node[146].appl 	receivedWSMs 	0
scalar MyScenario.node[146].appl 	generatedBSMs 	0
scalar MyScenario.node[146].appl 	receivedBSMs 	0
scalar MyScenario.node[146].appl 	generatedWSAs 	0
scalar MyScenario.node[146].appl 	receivedWSAs 	0
scalar MyScenario.node[146].nic.phy80211p 	busyTime 	6.3272727272727e-05
scalar MyScenario.node[146].nic.mac1609_4 	ReceivedUnicastPackets 	0
scalar MyScenario.node[146].nic.mac1609_4 	ReceivedBroadcasts 	0
scalar MyScenario.node[146].nic.mac1609_4 	SentPackets 	0
scalar MyScenario.node[146].nic.mac1609_4 	SNIRLostPackets 	3
scalar MyScenario.node[146].nic.mac1609_4 	RXTXLostPackets 	0
scalar MyScenario.node[146].nic.mac1609_4 	TotalLostPackets 	3
scalar MyScenario.node[146].nic.mac1609_4 	DroppedPacketsInMac 	0
scalar MyScenario.node[146].nic.mac1609_4 	TooLittleTime 	0
scalar MyScenario.node[146].nic.mac1609_4 	TimesIntoBackoff 	0
scalar MyScenario.node[146].nic.mac1609_4 	SlotsBackoff 	0
scalar MyScenario.node[146].nic.mac1609_4 	NumInternalContention 	0
scalar MyScenario.node[146].nic.mac1609_4 	totalBusyTime 	0.000232
scalar MyScenario.node[146].veinsmobility 	startTime 	1
scalar MyScenario.node[146].veinsmobility 	totalTime 	10
scalar MyScenario.node[146].veinsmobility 	stopTime 	12
scalar MyScenario.node[146].veinsmobility 	minSpeed 	1.468484151992
scalar MyScenario.node[146].veinsmobility 	maxSpeed 	13.617223904119
scalar MyScenario.node[146].veinsmobility 	totalDistance 	80.8947659611
scalar MyScenario.node[146].veinsmobility 	totalCO2Emission 	39.122496341021
scalar MyScenario.node[70].appl 	generatedWSMs 	0
scalar MyScenario.node[70].appl 	receivedWSMs 	0
scalar MyScenario.node[70].appl 	generatedBSMs 	0
scalar MyScenario.node[70].appl 	receivedBSMs 	0
scalar MyScenario.node[70].appl 	generatedWSAs 	0
scalar MyScenario.node[70].appl 	receivedWSAs 	0
scalar MyScenario.node[70].nic.phy80211p 	busyTime 	0.00014763636363636
scalar MyScenario.node[70].nic.mac1609_4 	ReceivedUnicastPackets 	0
scalar MyScenario.node[70].nic.mac1609_4 	ReceivedBroadcasts 	0
scalar MyScenario.node[70].nic.mac1609_4 	SentPackets 	0
scalar MyScenario.node[70].nic.mac1609_4 	SNIRLostPackets 	7
scalar MyScenario.node[70].nic.mac1609_4 	RXTXLostPackets 	0
scalar MyScenario.node[70].nic.mac1609_4 	TotalLostPackets 	7
scalar MyScenario.node[70].nic.mac1609_4 	DroppedPacketsInMac 	0
scalar MyScenario.node[70].nic.mac1609_4 	TooLittleTime 	0
scalar MyScenario.node[70].nic.mac1609_4 	TimesIntoBackoff 	0
scalar MyScenario.node[70].nic.mac1609_4 	SlotsBackoff 	0
scalar MyScenario.node[70].nic.mac1609_4 	NumInternalContention 	0
scalar MyScenario.node[70].nic.mac1609_4 	totalBusyTime 	0.000928
scalar MyScenario.node[70].veinsmobility 	startTime 	1
scalar MyScenario.node[70].veinsmobility 	totalTime 	10
scalar MyScenario.node[70].veinsmobility 	stopTime 	12
scalar MyScenario.node[70].veinsmobility 	minSpeed 	1.8161164063029
scalar MyScenario.node[70].veinsmobility 	maxSpeed 	13.371260655276
scalar MyScenario.node[70].veinsmobility 	totalDistance 	88.306835996521
scalar MyScenario.node[70].veinsmobility 	totalCO2Emission 	37.85306179365
scalar MyScenario.node[291].appl 	generatedWSMs 	1
scalar MyScenario.node[291].appl 	receivedWSMs 	4
scalar MyScenario.node[291].appl 	generatedBSMs 	0
scalar MyScenario.node[291].appl 	receivedBSMs 	0
scalar MyScenario.node[291].appl 	generatedWSAs 	0
scalar MyScenario.node[291].appl 	receivedWSAs 	0
scalar MyScenario.node[291].nic.phy80211p 	busyTime 	0.00086472727272727
scalar MyScenario.node[291].nic.mac1609_4 	ReceivedUnicastPackets 	0
scalar MyScenario.node[291].nic.mac1609_4 	ReceivedBroadcasts 	4
scalar MyScenario.node[291].nic.mac1609_4 	SentPackets 	1
scalar MyScenario.node[291].nic.mac1609_4 	SNIRLostPackets 	37
scalar MyScenario.node[291].nic.mac1609_4 	RXTXLostPackets 	6
scalar MyScenario.node[291].nic.mac1609_4 	TotalLostPackets 	43
scalar MyScenario.node[291].nic.mac1609_4 	DroppedPacketsInMac 	0
scalar MyScenario.node[291].nic.mac1609_4 	TooLittleTime 	0
scalar MyScenario.node[291].nic.mac1609_4 	TimesIntoBackoff 	1
scalar MyScenario.node[291].nic.mac1609_4 	SlotsBackoff 	3
scalar MyScenario.node[291].nic.mac1609_4 	NumInternalContention 	0
scalar MyScenario.node[291].nic.mac1609_4 	totalBusyTime 	0.002321
scalar MyScenario.node[291].veinsmobility 	startTime 	4
scalar MyScenario.node[291].veinsmobility 	totalTime 	10
scalar MyScenario.node[291].veinsmobility 	stopTime 	15
scalar MyScenario.node[291].veinsmobility 	minSpeed 	2.3159106985899
scalar MyScenario.node[291].veinsmobility 	maxSpeed 	13.738759841258
scalar MyScenario.node[291].veinsmobility 	totalDistance 	92.889719538304
scalar MyScenario.node[291].veinsmobility 	totalCO2Emission 	39.908008706932
scalar MyScenario.node[130].appl 	generatedWSMs 	0
scalar MyScenario.node[130].appl 	receivedWSMs 	0
scalar MyScenario.node[130].appl 	generatedBSMs 	0
scalar MyScenario.node[130].appl 	receivedBSMs 	0
scalar MyScenario.node[130].appl 	generatedWSAs 	0
scalar MyScenario.node[130].appl 	receivedWSAs 	0
scalar MyScenario.node[130].nic.phy80211p 	busyTime 	0.00010917647058824
scalar MyScenario.node[130].nic.mac1609_4 	ReceivedUnicastPackets 	0
scalar MyScenario.node[130].nic.mac1609_4 	ReceivedBroadcasts 	0
scalar MyScenario.node[130].nic.mac1609_4 	SentPackets 	0
scalar MyScenario.node[130].nic.mac1609_4 	SNIRLostPackets 	8
scalar MyScenario.node[130].nic.mac1609_4 	RXTXLostPackets 	0
scalar MyScenario.node[130].nic.mac1609_4 	TotalLostPackets 	8
scalar MyScenario.node[130].nic.mac1609_4 	DroppedPacketsInMac 	0
scalar MyScenario.node[130].nic.mac1609_4 	TooLittleTime 	0
scalar MyScenario.node[130].nic.mac1609_4 	TimesIntoBackoff 	0
scalar MyScenario.node[130].nic.mac1609_4 	SlotsBackoff 	0
scalar MyScenario.node[130].nic.mac1609_4 	NumInternalContention 	0
scalar MyScenario.node[130].nic.mac1609_4 	totalBusyTime 	0.000464
scalar MyScenario.node[130].veinsmobility 	startTime 	1
scalar MyScenario.node[130].veinsmobility 	totalTime 	16
scalar MyScenario.node[130].veinsmobility 	stopTime 	18
scalar MyScenario.node[130].veinsmobility 	minSpeed 	2.4578542649746
scalar MyScenario.node[130].veinsmobility 	maxSpeed 	13.789594162232
scalar MyScenario.node[130].veinsmobility 	totalDistance 	176.28771142417
scalar MyScenario.node[130].veinsmobility 	totalCO2Emission 	51.00875207087
scalar MyScenario.node[349].appl 	generatedWSMs 	0
scalar MyScenario.node[349].appl 	receivedWSMs 	0
scalar MyScenario.node[349].appl 	generatedBSMs 	0
scalar MyScenario.node[349].appl 	receivedBSMs 	0
scalar MyScenario.node[349].appl 	generatedWSAs 	0
scalar MyScenario.node[349].appl 	receivedWSAs 	0
scalar MyScenario.node[349].nic.phy80211p 	busyTime 	4.2181818181818e-05
scalar MyScenario.node[349].nic.mac1609_4 	ReceivedUnicastPackets 	0
scalar MyScenario.node[349].nic.mac1609_4 	ReceivedBroadcasts 	0
scalar MyScenario.node[349].nic.mac1609_4 	SentPackets 	0
scalar MyScenario.node[349].nic.mac1609_4 	SNIRLostPackets 	2
scalar MyScenario.node[349].nic.mac1609_4 	RXTXLostPackets 	0
scalar MyScenario.node[349].nic.mac1609_4 	TotalLostPackets 	2
scalar MyScenario.node[349].nic.mac1609_4 	DroppedPacketsInMac 	0
scalar MyScenario.node[349].nic.mac1609_4 	TooLittleTime 	0
scalar MyScenario.node[349].nic.mac1609_4 	TimesIntoBackoff 	0
scalar MyScenario.node[349].nic.mac1609_4 	SlotsBackoff 	0
scalar MyScenario.node[349].nic.mac1609_4 	NumInternalContention 	0
scalar MyScenario.node[349].nic.mac1609_4 	totalBusyTime 	0.000232
scalar MyScenario.node[349].veinsmobility 	startTime 	7
scalar MyScenario.node[349].veinsmobility 	totalTime 	10
scalar MyScenario.node[349].veinsmobility 	stopTime 	18
scalar MyScenario.node[349].veinsmobility 	minSpeed 	1.7624944609357
scalar MyScenario.node[349].veinsmobility 	maxSpeed 	13.808370129229
scalar MyScenario.node[349].veinsmobility 	totalDistance 	91.046942571473
scalar MyScenario.node[349].veinsmobility 	totalCO2Emission 	40.392747271642
scalar MyScenario.node[222].appl 	generatedWSMs 	0
scalar MyScenario.node[222].appl 	receivedWSMs 	0
scalar MyScenario.node[222].appl 	generatedBSMs 	0
scalar MyScenario.node[222].appl 	receivedBSMs 	0
scalar MyScenario.node[222].appl 	generatedWSAs 	0
scalar MyScenario.node[222].appl 	receivedWSAs 	0
scalar MyScenario.node[222].nic.phy80211p 	busyTime 	0.00012888888888889
scalar MyScenario.node[222].nic.mac1609_4 	ReceivedUnicastPackets 	0
scalar MyScenario.node[222].nic.mac1609_4 	ReceivedBroadcasts 	0
scalar MyScenario.node[222].nic.mac1609_4 	SentPackets 	0
scalar MyScenario.node[222].nic.mac1609_4 	SNIRLostPackets 	10
scalar MyScenario.node[222].nic.mac1609_4 	RXTXLostPackets 	0
scalar MyScenario.node[222].nic.mac1609_4 	TotalLostPackets 	10
scalar MyScenario.node[222].nic.mac1609_4 	DroppedPacketsInMac 	0
scalar MyScenario.node[222].nic.mac1609_4 	TooLittleTime 	0
scalar MyScenario.node[222].nic.mac1609_4 	TimesIntoBackoff 	0
scalar MyScenario.node[222].nic.mac1609_4 	SlotsBackoff 	0
scalar MyScenario.node[222].nic.mac1609_4 	NumInternalContention 	0
scalar MyScenario.node[222].nic.mac1609_4 	totalBusyTime 	0.000232
scalar MyScenario.node[222].veinsmobility 	startTime 	1
scalar MyScenario.node[222].veinsmobility 	totalTime 	17
scalar MyScenario.node[222].veinsmobility 	stopTime 	19
scalar MyScenario.node[222].veinsmobility 	minSpeed 	1.902673453209
scalar MyScenario.node[222].veinsmobility 	maxSpeed 	13.842526296014
scalar MyScenario.node[222].veinsmobility 	totalDistance 	177.16981240584
scalar MyScenario.node[222].veinsmobility 	totalCO2Emission 	60.777288728358
scalar MyScenario.node[210].appl 	generatedWSMs 	1
scalar MyScenario.node[210].appl 	receivedWSMs 	6
scalar MyScenario.node[210].appl 	generatedBSMs 	0
scalar MyScenario.node[210].appl 	receivedBSMs 	0
scalar MyScenario.node[210].appl 	generatedWSAs 	0
scalar MyScenario.node[210].appl 	receivedWSAs 	0
scalar MyScenario.node[210].nic.phy80211p 	busyTime 	0.00049714285714286
scalar MyScenario.node[210].nic.mac1609_4 	ReceivedUnicastPackets 	0
scalar MyScenario.node[210].nic.mac1609_4 	ReceivedBroadcasts 	6
scalar MyScenario.node[210].nic.mac1609_4 	SentPackets 	1
scalar MyScenario.node[210].nic.mac1609_4 	SNIRLostPackets 	39
scalar MyScenario.node[210].nic.mac1609_4 	RXTXLostPackets 	20
scalar MyScenario.node[210].nic.mac1609_4 	TotalLostPackets 	59
scalar MyScenario.node[210].nic.mac1609_4 	DroppedPacketsInMac 	0
scalar MyScenario.node[210].nic.mac1609_4 	TooLittleTime 	0
scalar MyScenario.node[210].nic.mac1609_4 	TimesIntoBackoff 	1
scalar MyScenario.node[210].nic.mac1609_4 	SlotsBackoff 	0
scalar MyScenario.node[210].nic.mac1609_4 	NumInternalContention 	0
scalar MyScenario.node[210].nic.mac1609_4 	totalBusyTime 	0.003249096652
scalar MyScenario.node[210].veinsmobility 	startTime 	1
scalar MyScenario.node[210].veinsmobility 	totalTime 	20
scalar MyScenario.node[210].veinsmobility 	stopTime 	22
scalar MyScenario.node[210].veinsmobility 	minSpeed 	1.8677880311776
scalar MyScenario.node[210].veinsmobility 	maxSpeed 	13.721473016683
scalar MyScenario.node[210].veinsmobility 	totalDistance 	172.61122761866
scalar MyScenario.node[210].veinsmobility 	totalCO2Emission 	78.28755289181
scalar MyScenario.node[309].appl 	generatedWSMs 	0
scalar MyScenario.node[309].appl 	receivedWSMs 	0
scalar MyScenario.node[309].appl 	generatedBSMs 	0
scalar MyScenario.node[309].appl 	receivedBSMs 	0
scalar MyScenario.node[309].appl 	generatedWSAs 	0
scalar MyScenario.node[309].appl 	receivedWSAs 	0
scalar MyScenario.node[309].nic.phy80211p 	busyTime 	0
scalar MyScenario.node[309].nic.mac1609_4 	ReceivedUnicastPackets 	0
scalar MyScenario.node[309].nic.mac1609_4 	ReceivedBroadcasts 	0
scalar MyScenario.node[309].nic.mac1609_4 	SentPackets 	0
scalar MyScenario.node[309].nic.mac1609_4 	SNIRLostPackets 	0
scalar MyScenario.node[309].nic.mac1609_4 	RXTXLostPackets 	0
scalar MyScenario.node[309].nic.mac1609_4 	TotalLostPackets 	0
scalar MyScenario.node[309].nic.mac1609_4 	DroppedPacketsInMac 	0
scalar MyScenario.node[309].nic.mac1609_4 	TooLittleTime 	0
scalar MyScenario.node[309].nic.mac1609_4 	TimesIntoBackoff 	0
scalar MyScenario.node[309].nic.mac1609_4 	SlotsBackoff 	0
scalar MyScenario.node[309].nic.mac1609_4 	NumInternalContention 	0
scalar MyScenario.node[309].nic.mac1609_4 	totalBusyTime 	0
scalar MyScenario.node[309].veinsmobility 	startTime 	4
scalar MyScenario.node[309].veinsmobility 	totalTime 	18
scalar MyScenario.node[309].veinsmobility 	stopTime 	23
scalar MyScenario.node[309].veinsmobility 	minSpeed 	1.4530011118855
scalar MyScenario.node[309].veinsmobility 	maxSpeed 	13.82408375598
scalar MyScenario.node[309].veinsmobility 	totalDistance 	179.61377570758
scalar MyScenario.node[309].veinsmobility 	totalCO2Emission 	71.512543204268
scalar MyScenario.node[280].appl 	generatedWSMs 	0
scalar MyScenario.node[280].appl 	receivedWSMs 	0
scalar MyScenario.node[280].appl 	generatedBSMs 	0
scalar MyScenario.node[280].appl 	receivedBSMs 	0
scalar MyScenario.node[280].appl 	generatedWSAs 	0
scalar MyScenario.node[280].appl 	receivedWSAs 	0
scalar MyScenario.node[280].nic.phy80211p 	busyTime 	2.784e-05
scalar MyScenario.node[280].nic.mac1609_4 	ReceivedUnicastPackets 	0
scalar MyScenario.node[280].nic.mac1609_4 	ReceivedBroadcasts 	0
scalar MyScenario.node[280].nic.mac1609_4 	SentPackets 	0
scalar MyScenario.node[280].nic.mac1609_4 	SNIRLostPackets 	3
scalar MyScenario.node[280].nic.mac1609_4 	RXTXLostPackets 	0
scalar MyScenario.node[280].nic.mac1609_4 	TotalLostPackets 	3
scalar MyScenario.node[280].nic.mac1609_4 	DroppedPacketsInMac 	0
scalar MyScenario.node[280].nic.mac1609_4 	TooLittleTime 	0
scalar MyScenario.node[280].nic.mac1609_4 	TimesIntoBackoff 	0
scalar MyScenario.node[280].nic.mac1609_4 	SlotsBackoff 	0
scalar MyScenario.node[280].nic.mac1609_4 	NumInternalContention 	0
scalar MyScenario.node[280].nic.mac1609_4 	totalBusyTime 	0.000232
scalar MyScenario.node[280].veinsmobility 	startTime 	4
scalar MyScenario.node[280].veinsmobility 	totalTime 	24
scalar MyScenario.node[280].veinsmobility 	stopTime 	29
scalar MyScenario.node[280].veinsmobility 	minSpeed 	2.1173015222419
scalar MyScenario.node[280].veinsmobility 	maxSpeed 	13.851159521611
scalar MyScenario.node[280].veinsmobility 	totalDistance 	283.77408466509
scalar MyScenario.node[280].veinsmobility 	totalCO2Emission 	75.367191972979
scalar MyScenario.node[247].appl 	generatedWSMs 	1
scalar MyScenario.node[247].appl 	receivedWSMs 	2
scalar MyScenario.node[247].appl 	generatedBSMs 	0
scalar MyScenario.node[247].appl 	receivedBSMs 	0
scalar MyScenario.node[247].appl 	generatedWSAs 	0
scalar MyScenario.node[247].appl 	receivedWSAs 	0
scalar MyScenario.node[247].nic.phy80211p 	busyTime 	0.00016571428571429
scalar MyScenario.node[247].nic.mac1609_4 	ReceivedUnicastPackets 	0
scalar MyScenario.node[247].nic.mac1609_4 	ReceivedBroadcasts 	2
scalar MyScenario.node[247].nic.mac1609_4 	SentPackets 	1
scalar MyScenario.node[247].nic.mac1609_4 	SNIRLostPackets 	18
scalar MyScenario.node[247].nic.mac1609_4 	RXTXLostPackets 	17
scalar MyScenario.node[247].nic.mac1609_4 	TotalLostPackets 	35
scalar MyScenario.node[247].nic.mac1609_4 	DroppedPacketsInMac 	0
scalar MyScenario.node[247].nic.mac1609_4 	TooLittleTime 	0
scalar MyScenario.node[247].nic.mac1609_4 	TimesIntoBackoff 	1
scalar MyScenario.node[247].nic.mac1609_4 	SlotsBackoff 	3
scalar MyScenario.node[247].nic.mac1609_4 	NumInternalContention 	0
scalar MyScenario.node[247].nic.mac1609_4 	totalBusyTime 	0.002321192486
scalar MyScenario.node[247].veinsmobility 	startTime 	4
scalar MyScenario.node[247].veinsmobility 	totalTime 	27
scalar MyScenario.node[247].veinsmobility 	stopTime 	32
scalar MyScenario.node[247].veinsmobility 	minSpeed 	2.2099007599987
scalar MyScenario.node[247].veinsmobility 	maxSpeed 	13.726436618529
scalar MyScenario.node[247].veinsmobility 	totalDistance 	270.31342715456
scalar MyScenario.node[247].veinsmobility 	totalCO2Emission 	90.37944778298
scalar MyScenario.node[391].appl 	generatedWSMs 	1
scalar MyScenario.node[391].appl 	receivedWSMs 	4
scalar MyScenario.node[391].appl 	generatedBSMs 	0
scalar MyScenario.node[391].appl 	receivedBSMs 	0
scalar MyScenario.node[391].appl 	generatedWSAs 	0
scalar MyScenario.node[391].appl 	receivedWSAs 	0
scalar MyScenario.node[391].nic.phy80211p 	busyTime 	0.00012654545454545
scalar MyScenario.node[391].nic.mac1609_4 	ReceivedUnicastPackets 	0
scalar MyScenario.node[391].nic.mac1609_4 	ReceivedBroadcasts 	4
scalar MyScenario.node[391].nic.mac1609_4 	SentPackets 	1
scalar MyScenario.node[391].nic.mac1609_4 	SNIRLostPackets 	8
scalar MyScenario.node[391].nic.mac1609_4 	RXTXLostPackets 	5
scalar MyScenario.node[391].nic.mac1609_4 	TotalLostPackets 	13
scalar MyScenario.node[391].nic.mac1609_4 	DroppedPacketsInMac 	0
scalar MyScenario.node[391].nic.mac1609_4 	TooLittleTime 	0
scalar MyScenario.node[391].nic.mac1609_4 	TimesIntoBackoff 	1
scalar MyScenario.node[391].nic.mac1609_4 	SlotsBackoff 	3
scalar MyScenario.node[391].nic.mac1609_4 	NumInternalContention 	0
scalar MyScenario.node[391].nic.mac1609_4 	totalBusyTime 	0.002321
scalar MyScenario.node[391].veinsmobility 	startTime 	11
scalar MyScenario.node[391].veinsmobility 	totalTime 	21
scalar MyScenario.node[391].veinsmobility 	stopTime 	33
scalar MyScenario.node[391].veinsmobility 	minSpeed 	10.944911571689
scalar MyScenario.node[391].veinsmobility 	maxSpeed 	13.662365421513
scalar MyScenario.node[391].veinsmobility 	totalDistance 	273.05935360631
scalar MyScenario.node[391].veinsmobility 	totalCO2Emission 	56.004113376105
scalar MyScenario.node[191].appl 	generatedWSMs 	1
scalar MyScenario.node[191].appl 	receivedWSMs 	2
scalar MyScenario.node[191].appl 	generatedBSMs 	0
scalar MyScenario.node[191].appl 	receivedBSMs 	0
scalar MyScenario.node[191].appl 	generatedWSAs 	0
scalar MyScenario.node[191].appl 	receivedWSAs 	0
scalar MyScenario.node[191].nic.phy80211p 	busyTime 	0.00014060606060606
scalar MyScenario.node[191].nic.mac1609_4 	ReceivedUnicastPackets 	0
scalar MyScenario.node[191].nic.mac1609_4 	ReceivedBroadcasts 	2
scalar MyScenario.node[191].nic.mac1609_4 	SentPackets 	1
scalar MyScenario.node[191].nic.mac1609_4 	SNIRLostPackets 	18
scalar MyScenario.node[191].nic.mac1609_4 	RXTXLostPackets 	20
scalar MyScenario.node[191].nic.mac1609_4 	TotalLostPackets 	38
scalar MyScenario.node[191].nic.mac1609_4 	DroppedPacketsInMac 	0
scalar MyScenario.node[191].nic.mac1609_4 	TooLittleTime 	0
scalar MyScenario.node[191].nic.mac1609_4 	TimesIntoBackoff 	1
scalar MyScenario.node[191].nic.mac1609_4 	SlotsBackoff 	2
scalar MyScenario.node[191].nic.mac1609_4 	NumInternalContention 	0
scalar MyScenario.node[191].nic.mac1609_4 	totalBusyTime 	0.002553188071
scalar MyScenario.node[191].veinsmobility 	startTime 	1
scalar MyScenario.node[191].veinsmobility 	totalTime 	32
scalar MyScenario.node[191].veinsmobility 	stopTime 	34
scalar MyScenario.node[191].veinsmobility 	minSpeed 	0.0022446796936101
scalar MyScenario.node[191].veinsmobility 	maxSpeed 	13.747231056564
scalar MyScenario.node[191].veinsmobility 	totalDistance 	271.46245592834
scalar MyScenario.node[191].veinsmobility 	totalCO2Emission 	97.871133478028
scalar MyScenario.node[211].appl 	generatedWSMs 	1
scalar MyScenario.node[211].appl 	receivedWSMs 	2
scalar MyScenario.node[211].appl 	generatedBSMs 	0
scalar MyScenario.node[211].appl 	receivedBSMs 	0
scalar MyScenario.node[211].appl 	generatedWSAs 	0
scalar MyScenario.node[211].appl 	receivedWSAs 	0
scalar MyScenario.node[211].nic.phy80211p 	busyTime 	0.0003712
scalar MyScenario.node[211].nic.mac1609_4 	ReceivedUnicastPackets 	0
scalar MyScenario.node[211].nic.mac1609_4 	ReceivedBroadcasts 	2
scalar MyScenario.node[211].nic.mac1609_4 	SentPackets 	1
scalar MyScenario.node[211].nic.mac1609_4 	SNIRLostPackets 	54
scalar MyScenario.node[211].nic.mac1609_4 	RXTXLostPackets 	4
scalar MyScenario.node[211].nic.mac1609_4 	TotalLostPackets 	58
scalar MyScenario.node[211].nic.mac1609_4 	DroppedPacketsInMac 	0
scalar MyScenario.node[211].nic.mac1609_4 	TooLittleTime 	0
scalar MyScenario.node[211].nic.mac1609_4 	TimesIntoBackoff 	1
scalar MyScenario.node[211].nic.mac1609_4 	SlotsBackoff 	0
scalar MyScenario.node[211].nic.mac1609_4 	NumInternalContention 	0
scalar MyScenario.node[211].nic.mac1609_4 	totalBusyTime 	0.00278517983
scalar MyScenario.node[211].veinsmobility 	startTime 	1
scalar MyScenario.node[211].veinsmobility 	totalTime 	34
scalar MyScenario.node[211].veinsmobility 	stopTime 	36
scalar MyScenario.node[211].veinsmobility 	minSpeed 	1.7284188983962
scalar MyScenario.node[211].veinsmobility 	maxSpeed 	13.755479154759
scalar MyScenario.node[211].veinsmobility 	totalDistance 	379.61690905995
scalar MyScenario.node[211].veinsmobility 	totalCO2Emission 	108.530887682
scalar MyScenario.node[85].appl 	generatedWSMs 	1
scalar MyScenario.node[85].appl 	receivedWSMs 	2
scalar MyScenario.node[85].appl 	generatedBSMs 	0
scalar MyScenario.node[85].appl 	receivedBSMs 	0
scalar MyScenario.node[85].appl 	generatedWSAs 	0
scalar MyScenario.node[85].appl 	receivedWSAs 	0
scalar MyScenario.node[85].nic.phy80211p 	busyTime 	0.00016755555555556
scalar MyScenario.node[85].nic.mac1609_4 	ReceivedUnicastPackets 	0
scalar MyScenario.node[85].nic.mac1609_4 	ReceivedBroadcasts 	2
scalar MyScenario.node[85].nic.mac1609_4 	SentPackets 	1
scalar MyScenario.node[85].nic.mac1609_4 	SNIRLostPackets 	24
scalar MyScenario.node[85].nic.mac1609_4 	RXTXLostPackets 	15
scalar MyScenario.node[85].nic.mac1609_4 	TotalLostPackets 	39
scalar MyScenario.node[85].nic.mac1609_4 	DroppedPacketsInMac 	0
scalar MyScenario.node[85].nic.mac1609_4 	TooLittleTime 	0
scalar MyScenario.node[85].nic.mac1609_4 	TimesIntoBackoff 	1
scalar MyScenario.node[85].nic.mac1609_4 	SlotsBackoff 	1
scalar MyScenario.node[85].nic.mac1609_4 	NumInternalContention 	0
scalar MyScenario.node[85].nic.mac1609_4 	totalBusyTime 	0.002089309649
scalar MyScenario.node[85].veinsmobility 	startTime 	1
scalar MyScenario.node[85].veinsmobility 	totalTime 	35
scalar MyScenario.node[85].veinsmobility 	stopTime 	37
scalar MyScenario.node[85].veinsmobility 	minSpeed 	1.631098788348
scalar MyScenario.node[85].veinsmobility 	maxSpeed 	13.896296095336
scalar MyScenario.node[85].veinsmobility 	totalDistance 	374.20390304442
scalar MyScenario.node[85].veinsmobility 	totalCO2Emission 	118.39967597707
scalar MyScenario.node[162].appl 	generatedWSMs 	1
scalar MyScenario.node[162].appl 	receivedWSMs 	3
scalar MyScenario.node[162].appl 	generatedBSMs 	0
scalar MyScenario.node[162].appl 	receivedBSMs 	0
scalar MyScenario.node[162].appl 	generatedWSAs 	0
scalar MyScenario.node[162].appl 	receivedWSAs 	0
scalar MyScenario.node[162].nic.phy80211p 	busyTime 	0.00029
scalar MyScenario.node[162].nic.mac1609_4 	ReceivedUnicastPackets 	0
scalar MyScenario.node[162].nic.mac1609_4 	ReceivedBroadcasts 	3
scalar MyScenario.node[162].nic.mac1609_4 	SentPackets 	1
scalar MyScenario.node[162].nic.mac1609_4 	SNIRLostPackets 	42
scalar MyScenario.node[162].nic.mac1609_4 	RXTXLostPackets 	4
scalar MyScenario.node[162].nic.mac1609_4 	TotalLostPackets 	46
scalar MyScenario.node[162].nic.mac1609_4 	DroppedPacketsInMac 	0
scalar MyScenario.node[162].nic.mac1609_4 	TooLittleTime 	0
scalar MyScenario.node[162].nic.mac1609_4 	TimesIntoBackoff 	1
scalar MyScenario.node[162].nic.mac1609_4 	SlotsBackoff 	2
scalar MyScenario.node[162].nic.mac1609_4 	NumInternalContention 	0
scalar MyScenario.node[162].nic.mac1609_4 	totalBusyTime 	0.00255300035
scalar MyScenario.node[162].veinsmobility 	startTime 	1
scalar MyScenario.node[162].veinsmobility 	totalTime 	35
scalar MyScenario.node[162].veinsmobility 	stopTime 	37
scalar MyScenario.node[162].veinsmobility 	minSpeed 	1.9969190652715
scalar MyScenario.node[162].veinsmobility 	maxSpeed 	13.892717681429
scalar MyScenario.node[162].veinsmobility 	totalDistance 	379.63546839366
scalar MyScenario.node[162].veinsmobility 	totalCO2Emission 	122.568450178
scalar MyScenario.node[310].appl 	generatedWSMs 	0
scalar MyScenario.node[310].appl 	receivedWSMs 	0
scalar MyScenario.node[310].appl 	generatedBSMs 	0
scalar MyScenario.node[310].appl 	receivedBSMs 	0
scalar MyScenario.node[310].appl 	generatedWSAs 	0
scalar MyScenario.node[310].appl 	receivedWSAs 	0
scalar MyScenario.node[310].nic.phy80211p 	busyTime 	0.0001856
scalar MyScenario.node[310].nic.mac1609_4 	ReceivedUnicastPackets 	0
scalar MyScenario.node[310].nic.mac1609_4 	ReceivedBroadcasts 	0
scalar MyScenario.node[310].nic.mac1609_4 	SentPackets 	0
scalar MyScenario.node[310].nic.mac1609_4 	SNIRLostPackets 	28
scalar MyScenario.node[310].nic.mac1609_4 	RXTXLostPackets 	0
scalar MyScenario.node[310].nic.mac1609_4 	TotalLostPackets 	28
scalar MyScenario.node[310].nic.mac1609_4 	DroppedPacketsInMac 	0
scalar MyScenario.node[310].nic.mac1609_4 	TooLittleTime 	0
scalar MyScenario.node[310].nic.mac1609_4 	TimesIntoBackoff 	0
scalar MyScenario.node[310].nic.mac1609_4 	SlotsBackoff 	0
scalar MyScenario.node[310].nic.mac1609_4 	NumInternalContention 	0
scalar MyScenario.node[310].nic.mac1609_4 	totalBusyTime 	0.00232
scalar MyScenario.node[310].veinsmobility 	startTime 	4
scalar MyScenario.node[310].veinsmobility 	totalTime 	34
scalar MyScenario.node[310].veinsmobility 	stopTime 	39
scalar MyScenario.node[310].veinsmobility 	minSpeed 	0.68074804897509
scalar MyScenario.node[310].veinsmobility 	maxSpeed 	13.856023103511
scalar MyScenario.node[310].veinsmobility 	totalDistance 	370.97095464074
scalar MyScenario.node[310].veinsmobility 	totalCO2Emission 	107.51413188412
scalar MyScenario.node[335].appl 	generatedWSMs 	1
scalar MyScenario.node[335].appl 	receivedWSMs 	1
scalar MyScenario.node[335].appl 	generatedBSMs 	0
scalar MyScenario.node[335].appl 	receivedBSMs 	0
scalar MyScenario.node[335].appl 	generatedWSAs 	0
scalar MyScenario.node[335].appl 	receivedWSAs 	0
scalar MyScenario.node[335].nic.phy80211p 	busyTime 	4.64e-05
scalar MyScenario.node[335].nic.mac1609_4 	ReceivedUnicastPackets 	0
scalar MyScenario.node[335].nic.mac1609_4 	ReceivedBroadcasts 	1
scalar MyScenario.node[335].nic.mac1609_4 	SentPackets 	1
scalar MyScenario.node[335].nic.mac1609_4 	SNIRLostPackets 	6
scalar MyScenario.node[335].nic.mac1609_4 	RXTXLostPackets 	14
scalar MyScenario.node[335].nic.mac1609_4 	TotalLostPackets 	20
scalar MyScenario.node[335].nic.mac1609_4 	DroppedPacketsInMac 	0
scalar MyScenario.node[335].nic.mac1609_4 	TooLittleTime 	0
scalar MyScenario.node[335].nic.mac1609_4 	TimesIntoBackoff 	1
scalar MyScenario.node[335].nic.mac1609_4 	SlotsBackoff 	2
scalar MyScenario.node[335].nic.mac1609_4 	NumInternalContention 	0
scalar MyScenario.node[335].nic.mac1609_4 	totalBusyTime 	0.000697099283
scalar MyScenario.node[335].veinsmobility 	startTime 	4
scalar MyScenario.node[335].veinsmobility 	totalTime 	34
scalar MyScenario.node[335].veinsmobility 	stopTime 	39
scalar MyScenario.node[335].veinsmobility 	minSpeed 	1.6732012007153
scalar MyScenario.node[335].veinsmobility 	maxSpeed 	13.873775892495
scalar MyScenario.node[335].veinsmobility 	totalDistance 	372.58698143034
scalar MyScenario.node[335].veinsmobility 	totalCO2Emission 	111.16704320433
scalar MyScenario.node[402].appl 	generatedWSMs 	1
scalar MyScenario.node[402].appl 	receivedWSMs 	2
scalar MyScenario.node[402].appl 	generatedBSMs 	0
scalar MyScenario.node[402].appl 	receivedBSMs 	0
scalar MyScenario.node[402].appl 	generatedWSAs 	0
scalar MyScenario.node[402].appl 	receivedWSAs 	0
scalar MyScenario.node[402].nic.phy80211p 	busyTime 	0.00043236363636364
scalar MyScenario.node[402].nic.mac1609_4 	ReceivedUnicastPackets 	0
scalar MyScenario.node[402].nic.mac1609_4 	ReceivedBroadcasts 	2
scalar MyScenario.node[402].nic.mac1609_4 	SentPackets 	1
scalar MyScenario.node[402].nic.mac1609_4 	SNIRLostPackets 	39
scalar MyScenario.node[402].nic.mac1609_4 	RXTXLostPackets 	9
scalar MyScenario.node[402].nic.mac1609_4 	TotalLostPackets 	48
scalar MyScenario.node[402].nic.mac1609_4 	DroppedPacketsInMac 	0
scalar MyScenario.node[402].nic.mac1609_4 	TooLittleTime 	0
scalar MyScenario.node[402].nic.mac1609_4 	TimesIntoBackoff 	1
scalar MyScenario.node[402].nic.mac1609_4 	SlotsBackoff 	2
scalar MyScenario.node[402].nic.mac1609_4 	NumInternalContention 	0
scalar MyScenario.node[402].nic.mac1609_4 	totalBusyTime 	0.001393104464
scalar MyScenario.node[402].veinsmobility 	startTime 	18
scalar MyScenario.node[402].veinsmobility 	totalTime 	21
scalar MyScenario.node[402].veinsmobility 	stopTime 	40
scalar MyScenario.node[402].veinsmobility 	minSpeed 	12.62611301099
scalar MyScenario.node[402].veinsmobility 	maxSpeed 	13.793377985875
scalar MyScenario.node[402].veinsmobility 	totalDistance 	278.45229815769
scalar MyScenario.node[402].veinsmobility 	totalCO2Emission 	45.818123097683
scalar MyScenario.node[212].appl 	generatedWSMs 	1
scalar MyScenario.node[212].appl 	receivedWSMs 	3
scalar MyScenario.node[212].appl 	generatedBSMs 	0
scalar MyScenario.node[212].appl 	receivedBSMs 	0
scalar MyScenario.node[212].appl 	generatedWSAs 	0
scalar MyScenario.node[212].appl 	receivedWSAs 	0
scalar MyScenario.node[212].nic.phy80211p 	busyTime 	0.000174
scalar MyScenario.node[212].nic.mac1609_4 	ReceivedUnicastPackets 	0
scalar MyScenario.node[212].nic.mac1609_4 	ReceivedBroadcasts 	3
scalar MyScenario.node[212].nic.mac1609_4 	SentPackets 	1
scalar MyScenario.node[212].nic.mac1609_4 	SNIRLostPackets 	27
scalar MyScenario.node[212].nic.mac1609_4 	RXTXLostPackets 	5
scalar MyScenario.node[212].nic.mac1609_4 	TotalLostPackets 	32
scalar MyScenario.node[212].nic.mac1609_4 	DroppedPacketsInMac 	0
scalar MyScenario.node[212].nic.mac1609_4 	TooLittleTime 	0
scalar MyScenario.node[212].nic.mac1609_4 	TimesIntoBackoff 	1
scalar MyScenario.node[212].nic.mac1609_4 	SlotsBackoff 	1
scalar MyScenario.node[212].nic.mac1609_4 	NumInternalContention 	0
scalar MyScenario.node[212].nic.mac1609_4 	totalBusyTime 	0.002785
scalar MyScenario.node[212].veinsmobility 	startTime 	1
scalar MyScenario.node[212].veinsmobility 	totalTime 	39
scalar MyScenario.node[212].veinsmobility 	stopTime 	41
scalar MyScenario.node[212].veinsmobility 	minSpeed 	0.25010289198995
scalar MyScenario.node[212].veinsmobility 	maxSpeed 	13.802647725074
scalar MyScenario.node[212].veinsmobility 	totalDistance 	385.1355987857
scalar MyScenario.node[212].veinsmobility 	totalCO2Emission 	114.62165298245
scalar MyScenario.node[393].appl 	generatedWSMs 	0
scalar MyScenario.node[393].appl 	receivedWSMs 	0
scalar MyScenario.node[393].appl 	generatedBSMs 	0
scalar MyScenario.node[393].appl 	receivedBSMs 	0
scalar MyScenario.node[393].appl 	generatedWSAs 	0
scalar MyScenario.node[393].appl 	receivedWSAs 	0
scalar MyScenario.node[393].nic.phy80211p 	busyTime 	0
scalar MyScenario.node[393].nic.mac1609_4 	ReceivedUnicastPackets 	0
scalar MyScenario.node[393].nic.mac1609_4 	ReceivedBroadcasts 	0
scalar MyScenario.node[393].nic.mac1609_4 	SentPackets 	0
scalar MyScenario.node[393].nic.mac1609_4 	SNIRLostPackets 	0
scalar MyScenario.node[393].nic.mac1609_4 	RXTXLostPackets 	0
scalar MyScenario.node[393].nic.mac1609_4 	TotalLostPackets 	0
scalar MyScenario.node[393].nic.mac1609_4 	DroppedPacketsInMac 	0
scalar MyScenario.node[393].nic.mac1609_4 	TooLittleTime 	0
scalar MyScenario.node[393].nic.mac1609_4 	TimesIntoBackoff 	0
scalar MyScenario.node[393].nic.mac1609_4 	SlotsBackoff 	0
scalar MyScenario.node[393].nic.mac1609_4 	NumInternalContention 	0
scalar MyScenario.node[393].nic.mac1609_4 	totalBusyTime 	0
scalar MyScenario.node[393].veinsmobility 	startTime 	12
scalar MyScenario.node[393].veinsmobility 	totalTime 	28
scalar MyScenario.node[393].veinsmobility 	stopTime 	41
scalar MyScenario.node[393].veinsmobility 	minSpeed 	0.01349817871478
scalar MyScenario.node[393].veinsmobility 	maxSpeed 	13.879034166178
scalar MyScenario.node[393].veinsmobility 	totalDistance 	274.2561226468
scalar MyScenario.node[393].veinsmobility 	totalCO2Emission 	76.569769765184
scalar MyScenario.node[131].appl 	generatedWSMs 	1
scalar MyScenario.node[131].appl 	receivedWSMs 	2
scalar MyScenario.node[131].appl 	generatedBSMs 	0
scalar MyScenario.node[131].appl 	receivedBSMs 	0
scalar MyScenario.node[131].appl 	generatedWSAs 	0
scalar MyScenario.node[131].appl 	receivedWSAs 	0
scalar MyScenario.node[131].nic.phy80211p 	busyTime 	0.0001392
scalar MyScenario.node[131].nic.mac1609_4 	ReceivedUnicastPackets 	0
scalar MyScenario.node[131].nic.mac1609_4 	ReceivedBroadcasts 	2
scalar MyScenario.node[131].nic.mac1609_4 	SentPackets 	1
scalar MyScenario.node[131].nic.mac1609_4 	SNIRLostPackets 	22
scalar MyScenario.node[131].nic.mac1609_4 	RXTXLostPackets 	2
scalar MyScenario.node[131].nic.mac1609_4 	TotalLostPackets 	24
scalar MyScenario.node[131].nic.mac1609_4 	DroppedPacketsInMac 	0
scalar MyScenario.node[131].nic.mac1609_4 	TooLittleTime 	0
scalar MyScenario.node[131].nic.mac1609_4 	TimesIntoBackoff 	1
scalar MyScenario.node[131].nic.mac1609_4 	SlotsBackoff 	2
scalar MyScenario.node[131].nic.mac1609_4 	NumInternalContention 	0
scalar MyScenario.node[131].nic.mac1609_4 	totalBusyTime 	0.002089
scalar MyScenario.node[131].veinsmobility 	startTime 	1
scalar MyScenario.node[131].veinsmobility 	totalTime 	39
scalar MyScenario.node[131].veinsmobility 	stopTime 	41
scalar MyScenario.node[131].veinsmobility 	minSpeed 	1.8677033352433
scalar MyScenario.node[131].veinsmobility 	maxSpeed 	13.893531898665
scalar MyScenario.node[131].veinsmobility 	totalDistance 	475.60671521884
scalar MyScenario.node[131].veinsmobility 	totalCO2Emission 	111.38900327223
scalar MyScenario.node[115].appl 	generatedWSMs 	1
scalar MyScenario.node[115].appl 	receivedWSMs 	2
scalar MyScenario.node[115].appl 	generatedBSMs 	0
scalar MyScenario.node[115].appl 	receivedBSMs 	0
scalar MyScenario.node[115].appl 	generatedWSAs 	0
scalar MyScenario.node[115].appl 	receivedWSAs 	0
scalar MyScenario.node[115].nic.phy80211p 	busyTime 	6.2243902439024e-05
scalar MyScenario.node[115].nic.mac1609_4 	ReceivedUnicastPackets 	0
scalar MyScenario.node[115].nic.mac1609_4 	ReceivedBroadcasts 	2
scalar MyScenario.node[115].nic.mac1609_4 	SentPackets 	1
scalar MyScenario.node[115].nic.mac1609_4 	SNIRLostPackets 	9
scalar MyScenario.node[115].nic.mac1609_4 	RXTXLostPackets 	16
scalar MyScenario.node[115].nic.mac1609_4 	TotalLostPackets 	25
scalar MyScenario.node[115].nic.mac1609_4 	DroppedPacketsInMac 	0
scalar MyScenario.node[115].nic.mac1609_4 	TooLittleTime 	0
scalar MyScenario.node[115].nic.mac1609_4 	TimesIntoBackoff 	1
scalar MyScenario.node[115].nic.mac1609_4 	SlotsBackoff 	2
scalar MyScenario.node[115].nic.mac1609_4 	NumInternalContention 	0
scalar MyScenario.node[115].nic.mac1609_4 	totalBusyTime 	0.001857072839
scalar MyScenario.node[115].veinsmobility 	startTime 	1
scalar MyScenario.node[115].veinsmobility 	totalTime 	40
scalar MyScenario.node[115].veinsmobility 	stopTime 	42
scalar MyScenario.node[115].veinsmobility 	minSpeed 	1.3781579922885
scalar MyScenario.node[115].veinsmobility 	maxSpeed 	13.886403855402
scalar MyScenario.node[115].veinsmobility 	totalDistance 	469.80195552118
scalar MyScenario.node[115].veinsmobility 	totalCO2Emission 	121.10838786246
scalar MyScenario.node[0].appl 	generatedWSMs 	14
scalar MyScenario.node[0].appl 	receivedWSMs 	3
scalar MyScenario.node[0].appl 	generatedBSMs 	0
scalar MyScenario.node[0].appl 	receivedBSMs 	0
scalar MyScenario.node[0].appl 	generatedWSAs 	0
scalar MyScenario.node[0].appl 	receivedWSAs 	0
scalar MyScenario.node[0].nic.phy80211p 	busyTime 	0.00056342857142857
scalar MyScenario.node[0].nic.mac1609_4 	ReceivedUnicastPackets 	0
scalar MyScenario.node[0].nic.mac1609_4 	ReceivedBroadcasts 	3
scalar MyScenario.node[0].nic.mac1609_4 	SentPackets 	14
scalar MyScenario.node[0].nic.mac1609_4 	SNIRLostPackets 	99
scalar MyScenario.node[0].nic.mac1609_4 	RXTXLostPackets 	0
scalar MyScenario.node[0].nic.mac1609_4 	TotalLostPackets 	99
scalar MyScenario.node[0].nic.mac1609_4 	DroppedPacketsInMac 	0
scalar MyScenario.node[0].nic.mac1609_4 	TooLittleTime 	0
scalar MyScenario.node[0].nic.mac1609_4 	TimesIntoBackoff 	14
scalar MyScenario.node[0].nic.mac1609_4 	SlotsBackoff 	27
scalar MyScenario.node[0].nic.mac1609_4 	NumInternalContention 	0
scalar MyScenario.node[0].nic.mac1609_4 	totalBusyTime 	0.006046631304
scalar MyScenario.node[0].veinsmobility 	startTime 	1
scalar MyScenario.node[0].veinsmobility 	totalTime 	41
scalar MyScenario.node[0].veinsmobility 	stopTime 	43
scalar MyScenario.node[0].veinsmobility 	minSpeed 	1.5718930713367
scalar MyScenario.node[0].veinsmobility 	maxSpeed 	13.87215898165
scalar MyScenario.node[0].veinsmobility 	totalDistance 	453.86237871527
scalar MyScenario.node[0].veinsmobility 	totalCO2Emission 	125.66140270581
scalar MyScenario.node[219].appl 	generatedWSMs 	1
scalar MyScenario.node[219].appl 	receivedWSMs 	2
scalar MyScenario.node[219].appl 	generatedBSMs 	0
scalar MyScenario.node[219].appl 	receivedBSMs 	0
scalar MyScenario.node[219].appl 	generatedWSAs 	0
scalar MyScenario.node[219].appl 	receivedWSAs 	0
scalar MyScenario.node[219].nic.phy80211p 	busyTime 	0.00015466666666667
scalar MyScenario.node[219].nic.mac1609_4 	ReceivedUnicastPackets 	0
scalar MyScenario.node[219].nic.mac1609_4 	ReceivedBroadcasts 	2
scalar MyScenario.node[219].nic.mac1609_4 	SentPackets 	1
scalar MyScenario.node[219].nic.mac1609_4 	SNIRLostPackets 	26
scalar MyScenario.node[219].nic.mac1609_4 	RXTXLostPackets 	10
scalar MyScenario.node[219].nic.mac1609_4 	TotalLostPackets 	36
scalar MyScenario.node[219].nic.mac1609_4 	DroppedPacketsInMac 	0
scalar MyScenario.node[219].nic.mac1609_4 	TooLittleTime 	0
scalar MyScenario.node[219].nic.mac1609_4 	TimesIntoBackoff 	1
scalar MyScenario.node[219].nic.mac1609_4 	SlotsBackoff 	2
scalar MyScenario.node[219].nic.mac1609_4 	NumInternalContention 	0
scalar MyScenario.node[219].nic.mac1609_4 	totalBusyTime 	0.002553103326
scalar MyScenario.node[219].veinsmobility 	startTime 	1
scalar MyScenario.node[219].veinsmobility 	totalTime 	41
scalar MyScenario.node[219].veinsmobility 	stopTime 	43
scalar MyScenario.node[219].veinsmobility 	minSpeed 	8.9157074713713e-05
scalar MyScenario.node[219].veinsmobility 	maxSpeed 	13.519619168784
scalar MyScenario.node[219].veinsmobility 	totalDistance 	283.59835535002
scalar MyScenario.node[219].veinsmobility 	totalCO2Emission 	110.80182068158
scalar MyScenario.node[83].appl 	generatedWSMs 	0
scalar MyScenario.node[83].appl 	receivedWSMs 	0
scalar MyScenario.node[83].appl 	generatedBSMs 	0
scalar MyScenario.node[83].appl 	receivedBSMs 	0
scalar MyScenario.node[83].appl 	generatedWSAs 	0
scalar MyScenario.node[83].appl 	receivedWSAs 	0
scalar MyScenario.node[83].nic.phy80211p 	busyTime 	0.000116
scalar MyScenario.node[83].nic.mac1609_4 	ReceivedUnicastPackets 	0
scalar MyScenario.node[83].nic.mac1609_4 	ReceivedBroadcasts 	0
scalar MyScenario.node[83].nic.mac1609_4 	SentPackets 	0
scalar MyScenario.node[83].nic.mac1609_4 	SNIRLostPackets 	21
scalar MyScenario.node[83].nic.mac1609_4 	RXTXLostPackets 	0
scalar MyScenario.node[83].nic.mac1609_4 	TotalLostPackets 	21
scalar MyScenario.node[83].nic.mac1609_4 	DroppedPacketsInMac 	0
scalar MyScenario.node[83].nic.mac1609_4 	TooLittleTime 	0
scalar MyScenario.node[83].nic.mac1609_4 	TimesIntoBackoff 	0
scalar MyScenario.node[83].nic.mac1609_4 	SlotsBackoff 	0
scalar MyScenario.node[83].nic.mac1609_4 	NumInternalContention 	0
scalar MyScenario.node[83].nic.mac1609_4 	totalBusyTime 	0.000464
scalar MyScenario.node[83].veinsmobility 	startTime 	1
scalar MyScenario.node[83].veinsmobility 	totalTime 	41
scalar MyScenario.node[83].veinsmobility 	stopTime 	43
scalar MyScenario.node[83].veinsmobility 	minSpeed 	1.963270377554
scalar MyScenario.node[83].veinsmobility 	maxSpeed 	13.818121870025
scalar MyScenario.node[83].veinsmobility 	totalDistance 	467.75382167276
scalar MyScenario.node[83].veinsmobility 	totalCO2Emission 	135.72020984198
scalar MyScenario.node[127].appl 	generatedWSMs 	1
scalar MyScenario.node[127].appl 	receivedWSMs 	1
scalar MyScenario.node[127].appl 	generatedBSMs 	0
scalar MyScenario.node[127].appl 	receivedBSMs 	0
scalar MyScenario.node[127].appl 	generatedWSAs 	0
scalar MyScenario.node[127].appl 	receivedWSAs 	0
scalar MyScenario.node[127].nic.phy80211p 	busyTime 	1.1047619047619e-05
scalar MyScenario.node[127].nic.mac1609_4 	ReceivedUnicastPackets 	0
scalar MyScenario.node[127].nic.mac1609_4 	ReceivedBroadcasts 	1
scalar MyScenario.node[127].nic.mac1609_4 	SentPackets 	1
scalar MyScenario.node[127].nic.mac1609_4 	SNIRLostPackets 	1
scalar MyScenario.node[127].nic.mac1609_4 	RXTXLostPackets 	10
scalar MyScenario.node[127].nic.mac1609_4 	TotalLostPackets 	11
scalar MyScenario.node[127].nic.mac1609_4 	DroppedPacketsInMac 	0
scalar MyScenario.node[127].nic.mac1609_4 	TooLittleTime 	0
scalar MyScenario.node[127].nic.mac1609_4 	TimesIntoBackoff 	1
scalar MyScenario.node[127].nic.mac1609_4 	SlotsBackoff 	0
scalar MyScenario.node[127].nic.mac1609_4 	NumInternalContention 	0
scalar MyScenario.node[127].nic.mac1609_4 	totalBusyTime 	0.000697
scalar MyScenario.node[127].veinsmobility 	startTime 	1
scalar MyScenario.node[127].veinsmobility 	totalTime 	41
scalar MyScenario.node[127].veinsmobility 	stopTime 	43
scalar MyScenario.node[127].veinsmobility 	minSpeed 	2.5483599425759
scalar MyScenario.node[127].veinsmobility 	maxSpeed 	13.851695697149
scalar MyScenario.node[127].veinsmobility 	totalDistance 	475.29808571318
scalar MyScenario.node[127].veinsmobility 	totalCO2Emission 	126.60041079566
scalar MyScenario.node[160].appl 	generatedWSMs 	1
scalar MyScenario.node[160].appl 	receivedWSMs 	1
scalar MyScenario.node[160].appl 	generatedBSMs 	0
scalar MyScenario.node[160].appl 	receivedBSMs 	0
scalar MyScenario.node[160].appl 	generatedWSAs 	0
scalar MyScenario.node[160].appl 	receivedWSAs 	0
scalar MyScenario.node[160].nic.phy80211p 	busyTime 	7.553488372093e-05
scalar MyScenario.node[160].nic.mac1609_4 	ReceivedUnicastPackets 	0
scalar MyScenario.node[160].nic.mac1609_4 	ReceivedBroadcasts 	1
scalar MyScenario.node[160].nic.mac1609_4 	SentPackets 	1
scalar MyScenario.node[160].nic.mac1609_4 	SNIRLostPackets 	13
scalar MyScenario.node[160].nic.mac1609_4 	RXTXLostPackets 	11
scalar MyScenario.node[160].nic.mac1609_4 	TotalLostPackets 	24
scalar MyScenario.node[160].nic.mac1609_4 	DroppedPacketsInMac 	0
scalar MyScenario.node[160].nic.mac1609_4 	TooLittleTime 	0
scalar MyScenario.node[160].nic.mac1609_4 	TimesIntoBackoff 	1
scalar MyScenario.node[160].nic.mac1609_4 	SlotsBackoff 	3
scalar MyScenario.node[160].nic.mac1609_4 	NumInternalContention 	0
scalar MyScenario.node[160].nic.mac1609_4 	totalBusyTime 	0.001857094686
scalar MyScenario.node[160].veinsmobility 	startTime 	1
scalar MyScenario.node[160].veinsmobility 	totalTime 	42
scalar MyScenario.node[160].veinsmobility 	stopTime 	44
scalar MyScenario.node[160].veinsmobility 	minSpeed 	2.1999141078675
scalar MyScenario.node[160].veinsmobility 	maxSpeed 	13.874333426938
scalar MyScenario.node[160].veinsmobility 	totalDistance 	477.58712528738
scalar MyScenario.node[160].veinsmobility 	totalCO2Emission 	136.38087959117
scalar MyScenario.node[143].appl 	generatedWSMs 	0
scalar MyScenario.node[143].appl 	receivedWSMs 	0
scalar MyScenario.node[143].appl 	generatedBSMs 	0
scalar MyScenario.node[143].appl 	receivedBSMs 	0
scalar MyScenario.node[143].appl 	generatedWSAs 	0
scalar MyScenario.node[143].appl 	receivedWSAs 	0
scalar MyScenario.node[143].nic.phy80211p 	busyTime 	5.3953488372093e-05
scalar MyScenario.node[143].nic.mac1609_4 	ReceivedUnicastPackets 	0
scalar MyScenario.node[143].nic.mac1609_4 	ReceivedBroadcasts 	0
scalar MyScenario.node[143].nic.mac1609_4 	SentPackets 	0
scalar MyScenario.node[143].nic.mac1609_4 	SNIRLostPackets 	10
scalar MyScenario.node[143].nic.mac1609_4 	RXTXLostPackets 	0
scalar MyScenario.node[143].nic.mac1609_4 	TotalLostPackets 	10
scalar MyScenario.node[143].nic.mac1609_4 	DroppedPacketsInMac 	0
scalar MyScenario.node[143].nic.mac1609_4 	TooLittleTime 	0
scalar MyScenario.node[143].nic.mac1609_4 	TimesIntoBackoff 	0
scalar MyScenario.node[143].nic.mac1609_4 	SlotsBackoff 	0
scalar MyScenario.node[143].nic.mac1609_4 	NumInternalContention 	0
scalar MyScenario.node[143].nic.mac1609_4 	totalBusyTime 	0.000464
scalar MyScenario.node[143].veinsmobility 	startTime 	1
scalar MyScenario.node[143].veinsmobility 	totalTime 	42
scalar MyScenario.node[143].veinsmobility 	stopTime 	44
scalar MyScenario.node[143].veinsmobility 	minSpeed 	0.00028318877898841
scalar MyScenario.node[143].veinsmobility 	maxSpeed 	13.893506294675
scalar MyScenario.node[143].veinsmobility 	totalDistance 	370.04579455469
scalar MyScenario.node[143].veinsmobility 	totalCO2Emission 	130.62705427614
scalar MyScenario.node[239].appl 	generatedWSMs 	1
scalar MyScenario.node[239].appl 	receivedWSMs 	2
scalar MyScenario.node[239].appl 	generatedBSMs 	0
scalar MyScenario.node[239].appl 	receivedBSMs 	0
scalar MyScenario.node[239].appl 	generatedWSAs 	0
scalar MyScenario.node[239].appl 	receivedWSAs 	0
scalar MyScenario.node[239].nic.phy80211p 	busyTime 	0.00010751219512195
scalar MyScenario.node[239].nic.mac1609_4 	ReceivedUnicastPackets 	0
scalar MyScenario.node[239].nic.mac1609_4 	ReceivedBroadcasts 	2
scalar MyScenario.node[239].nic.mac1609_4 	SentPackets 	1
scalar MyScenario.node[239].nic.mac1609_4 	SNIRLostPackets 	17
scalar MyScenario.node[239].nic.mac1609_4 	RXTXLostPackets 	23
scalar MyScenario.node[239].nic.mac1609_4 	TotalLostPackets 	40
scalar MyScenario.node[239].nic.mac1609_4 	DroppedPacketsInMac 	0
scalar MyScenario.node[239].nic.mac1609_4 	TooLittleTime 	0
scalar MyScenario.node[239].nic.mac1609_4 	TimesIntoBackoff 	1
scalar MyScenario.node[239].nic.mac1609_4 	SlotsBackoff 	0
scalar MyScenario.node[239].nic.mac1609_4 	NumInternalContention 	0
scalar MyScenario.node[239].nic.mac1609_4 	totalBusyTime 	0.002321198493
scalar MyScenario.node[239].veinsmobility 	startTime 	4
scalar MyScenario.node[239].veinsmobility 	totalTime 	40
scalar MyScenario.node[239].veinsmobility 	stopTime 	45
scalar MyScenario.node[239].veinsmobility 	minSpeed 	2.2646713723196
scalar MyScenario.node[239].veinsmobility 	maxSpeed 	13.817976141488
scalar MyScenario.node[239].veinsmobility 	totalDistance 	480.10844091439
scalar MyScenario.node[239].veinsmobility 	totalCO2Emission 	119.27199616053
scalar MyScenario.node[142].appl 	generatedWSMs 	1
scalar MyScenario.node[142].appl 	receivedWSMs 	1
scalar MyScenario.node[142].appl 	generatedBSMs 	0
scalar MyScenario.node[142].appl 	receivedBSMs 	0
scalar MyScenario.node[142].appl 	generatedWSAs 	0
scalar MyScenario.node[142].appl 	receivedWSAs 	0
scalar MyScenario.node[142].nic.phy80211p 	busyTime 	0.00012654545454545
scalar MyScenario.node[142].nic.mac1609_4 	ReceivedUnicastPackets 	0
scalar MyScenario.node[142].nic.mac1609_4 	ReceivedBroadcasts 	1
scalar MyScenario.node[142].nic.mac1609_4 	SentPackets 	1
scalar MyScenario.node[142].nic.mac1609_4 	SNIRLostPackets 	23
scalar MyScenario.node[142].nic.mac1609_4 	RXTXLostPackets 	24
scalar MyScenario.node[142].nic.mac1609_4 	TotalLostPackets 	47
scalar MyScenario.node[142].nic.mac1609_4 	DroppedPacketsInMac 	0
scalar MyScenario.node[142].nic.mac1609_4 	TooLittleTime 	0
scalar MyScenario.node[142].nic.mac1609_4 	TimesIntoBackoff 	1
scalar MyScenario.node[142].nic.mac1609_4 	SlotsBackoff 	3
scalar MyScenario.node[142].nic.mac1609_4 	NumInternalContention 	0
scalar MyScenario.node[142].nic.mac1609_4 	totalBusyTime 	0.002089138823
scalar MyScenario.node[142].veinsmobility 	startTime 	1
scalar MyScenario.node[142].veinsmobility 	totalTime 	43
scalar MyScenario.node[142].veinsmobility 	stopTime 	45
scalar MyScenario.node[142].veinsmobility 	minSpeed 	1.0568681836748
scalar MyScenario.node[142].veinsmobility 	maxSpeed 	13.849407913396
scalar MyScenario.node[142].veinsmobility 	totalDistance 	468.08126293786
scalar MyScenario.node[142].veinsmobility 	totalCO2Emission 	128.50728644285
scalar MyScenario.node[97].appl 	generatedWSMs 	0
scalar MyScenario.node[97].appl 	receivedWSMs 	0
scalar MyScenario.node[97].appl 	generatedBSMs 	0
scalar MyScenario.node[97].appl 	receivedBSMs 	0
scalar MyScenario.node[97].appl 	generatedWSAs 	0
scalar MyScenario.node[97].appl 	receivedWSAs 	0
scalar MyScenario.node[97].nic.phy80211p 	busyTime 	0.00013181818181818
scalar MyScenario.node[97].nic.mac1609_4 	ReceivedUnicastPackets 	0
scalar MyScenario.node[97].nic.mac1609_4 	ReceivedBroadcasts 	0
scalar MyScenario.node[97].nic.mac1609_4 	SentPackets 	0
scalar MyScenario.node[97].nic.mac1609_4 	SNIRLostPackets 	25
scalar MyScenario.node[97].nic.mac1609_4 	RXTXLostPackets 	0
scalar MyScenario.node[97].nic.mac1609_4 	TotalLostPackets 	25
scalar MyScenario.node[97].nic.mac1609_4 	DroppedPacketsInMac 	0
scalar MyScenario.node[97].nic.mac1609_4 	TooLittleTime 	0
scalar MyScenario.node[97].nic.mac1609_4 	TimesIntoBackoff 	0
scalar MyScenario.node[97].nic.mac1609_4 	SlotsBackoff 	0
scalar MyScenario.node[97].nic.mac1609_4 	NumInternalContention 	0
scalar MyScenario.node[97].nic.mac1609_4 	totalBusyTime 	0.000696012628
scalar MyScenario.node[97].veinsmobility 	startTime 	1
scalar MyScenario.node[97].veinsmobility 	totalTime 	43
scalar MyScenario.node[97].veinsmobility 	stopTime 	45
scalar MyScenario.node[97].veinsmobility 	minSpeed 	0.00023584329186949
scalar MyScenario.node[97].veinsmobility 	maxSpeed 	13.832574454485
scalar MyScenario.node[97].veinsmobility 	totalDistance 	378.85423739602
scalar MyScenario.node[97].veinsmobility 	totalCO2Emission 	135.70165014925
scalar MyScenario.node[25].appl 	generatedWSMs 	1
scalar MyScenario.node[25].appl 	receivedWSMs 	1
scalar MyScenario.node[25].appl 	generatedBSMs 	0
scalar MyScenario.node[25].appl 	receivedBSMs 	0
scalar MyScenario.node[25].appl 	generatedWSAs 	0
scalar MyScenario.node[25].appl 	receivedWSAs 	0
scalar MyScenario.node[25].nic.phy80211p 	busyTime 	5.6711111111111e-05
scalar MyScenario.node[25].nic.mac1609_4 	ReceivedUnicastPackets 	0
scalar MyScenario.node[25].nic.mac1609_4 	ReceivedBroadcasts 	1
scalar MyScenario.node[25].nic.mac1609_4 	SentPackets 	1
scalar MyScenario.node[25].nic.mac1609_4 	SNIRLostPackets 	10
scalar MyScenario.node[25].nic.mac1609_4 	RXTXLostPackets 	17
scalar MyScenario.node[25].nic.mac1609_4 	TotalLostPackets 	27
scalar MyScenario.node[25].nic.mac1609_4 	DroppedPacketsInMac 	0
scalar MyScenario.node[25].nic.mac1609_4 	TooLittleTime 	0
scalar MyScenario.node[25].nic.mac1609_4 	TimesIntoBackoff 	1
scalar MyScenario.node[25].nic.mac1609_4 	SlotsBackoff 	0
scalar MyScenario.node[25].nic.mac1609_4 	NumInternalContention 	0
scalar MyScenario.node[25].nic.mac1609_4 	totalBusyTime 	0.001625039047
scalar MyScenario.node[25].veinsmobility 	startTime 	1
scalar MyScenario.node[25].veinsmobility 	totalTime 	44
scalar MyScenario.node[25].veinsmobility 	stopTime 	46
scalar MyScenario.node[25].veinsmobility 	minSpeed 	1.6127944542357
scalar MyScenario.node[25].veinsmobility 	maxSpeed 	13.884878091444
scalar MyScenario.node[25].veinsmobility 	totalDistance 	466.40056152704
scalar MyScenario.node[25].veinsmobility 	totalCO2Emission 	144.87145260046
scalar MyScenario.node[74].appl 	generatedWSMs 	1
scalar MyScenario.node[74].appl 	receivedWSMs 	8
scalar MyScenario.node[74].appl 	generatedBSMs 	0
scalar MyScenario.node[74].appl 	receivedBSMs 	0
scalar MyScenario.node[74].appl 	generatedWSAs 	0
scalar MyScenario.node[74].appl 	receivedWSAs 	0
scalar MyScenario.node[74].nic.phy80211p 	busyTime 	0.00038666666666667
scalar MyScenario.node[74].nic.mac1609_4 	ReceivedUnicastPackets 	0
scalar MyScenario.node[74].nic.mac1609_4 	ReceivedBroadcasts 	8
scalar MyScenario.node[74].nic.mac1609_4 	SentPackets 	1
scalar MyScenario.node[74].nic.mac1609_4 	SNIRLostPackets 	67
scalar MyScenario.node[74].nic.mac1609_4 	RXTXLostPackets 	2
scalar MyScenario.node[74].nic.mac1609_4 	TotalLostPackets 	69
scalar MyScenario.node[74].nic.mac1609_4 	DroppedPacketsInMac 	0
scalar MyScenario.node[74].nic.mac1609_4 	TooLittleTime 	0
scalar MyScenario.node[74].nic.mac1609_4 	TimesIntoBackoff 	1
scalar MyScenario.node[74].nic.mac1609_4 	SlotsBackoff 	0
scalar MyScenario.node[74].nic.mac1609_4 	NumInternalContention 	0
scalar MyScenario.node[74].nic.mac1609_4 	totalBusyTime 	0.005801188124
scalar MyScenario.node[74].veinsmobility 	startTime 	1
scalar MyScenario.node[74].veinsmobility 	totalTime 	44
scalar MyScenario.node[74].veinsmobility 	stopTime 	46
scalar MyScenario.node[74].veinsmobility 	minSpeed 	1.4814750483027
scalar MyScenario.node[74].veinsmobility 	maxSpeed 	13.84641319667
scalar MyScenario.node[74].veinsmobility 	totalDistance 	468.78145062046
scalar MyScenario.node[74].veinsmobility 	totalCO2Emission 	151.49709115109
scalar MyScenario.node[255].appl 	generatedWSMs 	0
scalar MyScenario.node[255].appl 	receivedWSMs 	0
scalar MyScenario.node[255].appl 	generatedBSMs 	0
scalar MyScenario.node[255].appl 	receivedBSMs 	0
scalar MyScenario.node[255].appl 	generatedWSAs 	0
scalar MyScenario.node[255].appl 	receivedWSAs 	0
scalar MyScenario.node[255].nic.phy80211p 	busyTime 	0
scalar MyScenario.node[255].nic.mac1609_4 	ReceivedUnicastPackets 	0
scalar MyScenario.node[255].nic.mac1609_4 	ReceivedBroadcasts 	0
scalar MyScenario.node[255].nic.mac1609_4 	SentPackets 	0
scalar MyScenario.node[255].nic.mac1609_4 	SNIRLostPackets 	0
scalar MyScenario.node[255].nic.mac1609_4 	RXTXLostPackets 	0
scalar MyScenario.node[255].nic.mac1609_4 	TotalLostPackets 	0
scalar MyScenario.node[255].nic.mac1609_4 	DroppedPacketsInMac 	0
scalar MyScenario.node[255].nic.mac1609_4 	TooLittleTime 	0
scalar MyScenario.node[255].nic.mac1609_4 	TimesIntoBackoff 	0
scalar MyScenario.node[255].nic.mac1609_4 	SlotsBackoff 	0
scalar MyScenario.node[255].nic.mac1609_4 	NumInternalContention 	0
scalar MyScenario.node[255].nic.mac1609_4 	totalBusyTime 	0
scalar MyScenario.node[255].veinsmobility 	startTime 	4
scalar MyScenario.node[255].veinsmobility 	totalTime 	42
scalar MyScenario.node[255].veinsmobility 	stopTime 	47
scalar MyScenario.node[255].veinsmobility 	minSpeed 	1.8879984284285
scalar MyScenario.node[255].veinsmobility 	maxSpeed 	13.879663139419
scalar MyScenario.node[255].veinsmobility 	totalDistance 	473.11358500263
scalar MyScenario.node[255].veinsmobility 	totalCO2Emission 	143.35479153585
scalar MyScenario.node[19].appl 	generatedWSMs 	1
scalar MyScenario.node[19].appl 	receivedWSMs 	5
scalar MyScenario.node[19].appl 	generatedBSMs 	0
scalar MyScenario.node[19].appl 	receivedBSMs 	0
scalar MyScenario.node[19].appl 	generatedWSAs 	0
scalar MyScenario.node[19].appl 	receivedWSAs 	0
scalar MyScenario.node[19].nic.phy80211p 	busyTime 	0.00019669565217391
scalar MyScenario.node[19].nic.mac1609_4 	ReceivedUnicastPackets 	0
scalar MyScenario.node[19].nic.mac1609_4 	ReceivedBroadcasts 	5
scalar MyScenario.node[19].nic.mac1609_4 	SentPackets 	1
scalar MyScenario.node[19].nic.mac1609_4 	SNIRLostPackets 	34
scalar MyScenario.node[19].nic.mac1609_4 	RXTXLostPackets 	2
scalar MyScenario.node[19].nic.mac1609_4 	TotalLostPackets 	36
scalar MyScenario.node[19].nic.mac1609_4 	DroppedPacketsInMac 	0
scalar MyScenario.node[19].nic.mac1609_4 	TooLittleTime 	0
scalar MyScenario.node[19].nic.mac1609_4 	TimesIntoBackoff 	1
scalar MyScenario.node[19].nic.mac1609_4 	SlotsBackoff 	0
scalar MyScenario.node[19].nic.mac1609_4 	NumInternalContention 	0
scalar MyScenario.node[19].nic.mac1609_4 	totalBusyTime 	0.002553065278
scalar MyScenario.node[19].veinsmobility 	startTime 	1
scalar MyScenario.node[19].veinsmobility 	totalTime 	45
scalar MyScenario.node[19].veinsmobility 	stopTime 	47
scalar MyScenario.node[19].veinsmobility 	minSpeed 	0.030717498215439
scalar MyScenario.node[19].veinsmobility 	maxSpeed 	13.535417272267
scalar MyScenario.node[19].veinsmobility 	totalDistance 	377.3128770154
scalar MyScenario.node[19].veinsmobility 	totalCO2Emission 	142.47668988838
scalar MyScenario.node[205].appl 	generatedWSMs 	0
scalar MyScenario.node[205].appl 	receivedWSMs 	0
scalar MyScenario.node[205].appl 	generatedBSMs 	0
scalar MyScenario.node[205].appl 	receivedBSMs 	0
scalar MyScenario.node[205].appl 	generatedWSAs 	0
scalar MyScenario.node[205].appl 	receivedWSAs 	0
scalar MyScenario.node[205].nic.phy80211p 	busyTime 	5.4297872340426e-05
scalar MyScenario.node[205].nic.mac1609_4 	ReceivedUnicastPackets 	0
scalar MyScenario.node[205].nic.mac1609_4 	ReceivedBroadcasts 	0
scalar MyScenario.node[205].nic.mac1609_4 	SentPackets 	0
scalar MyScenario.node[205].nic.mac1609_4 	SNIRLostPackets 	11
scalar MyScenario.node[205].nic.mac1609_4 	RXTXLostPackets 	0
scalar MyScenario.node[205].nic.mac1609_4 	TotalLostPackets 	11
scalar MyScenario.node[205].nic.mac1609_4 	DroppedPacketsInMac 	0
scalar MyScenario.node[205].nic.mac1609_4 	TooLittleTime 	0
scalar MyScenario.node[205].nic.mac1609_4 	TimesIntoBackoff 	0
scalar MyScenario.node[205].nic.mac1609_4 	SlotsBackoff 	0
scalar MyScenario.node[205].nic.mac1609_4 	NumInternalContention 	0
scalar MyScenario.node[205].nic.mac1609_4 	totalBusyTime 	0.000696
scalar MyScenario.node[205].veinsmobility 	startTime 	1
scalar MyScenario.node[205].veinsmobility 	totalTime 	46
scalar MyScenario.node[205].veinsmobility 	stopTime 	48
scalar MyScenario.node[205].veinsmobility 	minSpeed 	2.0766665471252
scalar MyScenario.node[205].veinsmobility 	maxSpeed 	13.890930561
scalar MyScenario.node[205].veinsmobility 	totalDistance 	573.2764717296
scalar MyScenario.node[205].veinsmobility 	totalCO2Emission 	130.65602434477
scalar MyScenario.node[63].appl 	generatedWSMs 	1
scalar MyScenario.node[63].appl 	receivedWSMs 	2
scalar MyScenario.node[63].appl 	generatedBSMs 	0
scalar MyScenario.node[63].appl 	receivedBSMs 	0
scalar MyScenario.node[63].appl 	generatedWSAs 	0
scalar MyScenario.node[63].appl 	receivedWSAs 	0
scalar MyScenario.node[63].nic.phy80211p 	busyTime 	0.00021266666666667
scalar MyScenario.node[63].nic.mac1609_4 	ReceivedUnicastPackets 	0
scalar MyScenario.node[63].nic.mac1609_4 	ReceivedBroadcasts 	2
scalar MyScenario.node[63].nic.mac1609_4 	SentPackets 	1
scalar MyScenario.node[63].nic.mac1609_4 	SNIRLostPackets 	42
scalar MyScenario.node[63].nic.mac1609_4 	RXTXLostPackets 	12
scalar MyScenario.node[63].nic.mac1609_4 	TotalLostPackets 	54
scalar MyScenario.node[63].nic.mac1609_4 	DroppedPacketsInMac 	0
scalar MyScenario.node[63].nic.mac1609_4 	TooLittleTime 	0
scalar MyScenario.node[63].nic.mac1609_4 	TimesIntoBackoff 	1
scalar MyScenario.node[63].nic.mac1609_4 	SlotsBackoff 	1
scalar MyScenario.node[63].nic.mac1609_4 	NumInternalContention 	0
scalar MyScenario.node[63].nic.mac1609_4 	totalBusyTime 	0.003249145033
scalar MyScenario.node[63].veinsmobility 	startTime 	1
scalar MyScenario.node[63].veinsmobility 	totalTime 	47
scalar MyScenario.node[63].veinsmobility 	stopTime 	49
scalar MyScenario.node[63].veinsmobility 	minSpeed 	2.5822720810072
scalar MyScenario.node[63].veinsmobility 	maxSpeed 	13.722171423165
scalar MyScenario.node[63].veinsmobility 	totalDistance 	480.54702910975
scalar MyScenario.node[63].veinsmobility 	totalCO2Emission 	131.15018868481
scalar MyScenario.node[54].appl 	generatedWSMs 	1
scalar MyScenario.node[54].appl 	receivedWSMs 	4
scalar MyScenario.node[54].appl 	generatedBSMs 	0
scalar MyScenario.node[54].appl 	receivedBSMs 	0
scalar MyScenario.node[54].appl 	generatedWSAs 	0
scalar MyScenario.node[54].appl 	receivedWSAs 	0
scalar MyScenario.node[54].nic.phy80211p 	busyTime 	0.00014204081632653
scalar MyScenario.node[54].nic.mac1609_4 	ReceivedUnicastPackets 	0
scalar MyScenario.node[54].nic.mac1609_4 	ReceivedBroadcasts 	4
scalar MyScenario.node[54].nic.mac1609_4 	SentPackets 	1
scalar MyScenario.node[54].nic.mac1609_4 	SNIRLostPackets 	26
scalar MyScenario.node[54].nic.mac1609_4 	RXTXLostPackets 	6
scalar MyScenario.node[54].nic.mac1609_4 	TotalLostPackets 	32
scalar MyScenario.node[54].nic.mac1609_4 	DroppedPacketsInMac 	0
scalar MyScenario.node[54].nic.mac1609_4 	TooLittleTime 	0
scalar MyScenario.node[54].nic.mac1609_4 	TimesIntoBackoff 	1
scalar MyScenario.node[54].nic.mac1609_4 	SlotsBackoff 	0
scalar MyScenario.node[54].nic.mac1609_4 	NumInternalContention 	0
scalar MyScenario.node[54].nic.mac1609_4 	totalBusyTime 	0.00301710256
scalar MyScenario.node[54].veinsmobility 	startTime 	1
scalar MyScenario.node[54].veinsmobility 	totalTime 	48
scalar MyScenario.node[54].veinsmobility 	stopTime 	50
scalar MyScenario.node[54].veinsmobility 	minSpeed 	1.4606071456335
scalar MyScenario.node[54].veinsmobility 	maxSpeed 	13.881465625996
scalar MyScenario.node[54].veinsmobility 	totalDistance 	579.12689098872
scalar MyScenario.node[54].veinsmobility 	totalCO2Emission 	143.40057720997
scalar MyScenario.node[253].appl 	generatedWSMs 	1
scalar MyScenario.node[253].appl 	receivedWSMs 	2
scalar MyScenario.node[253].appl 	generatedBSMs 	0
scalar MyScenario.node[253].appl 	receivedBSMs 	0
scalar MyScenario.node[253].appl 	generatedWSAs 	0
scalar MyScenario.node[253].appl 	receivedWSAs 	0
scalar MyScenario.node[253].nic.phy80211p 	busyTime 	0.00012834042553191
scalar MyScenario.node[253].nic.mac1609_4 	ReceivedUnicastPackets 	0
scalar MyScenario.node[253].nic.mac1609_4 	ReceivedBroadcasts 	2
scalar MyScenario.node[253].nic.mac1609_4 	SentPackets 	1
scalar MyScenario.node[253].nic.mac1609_4 	SNIRLostPackets 	24
scalar MyScenario.node[253].nic.mac1609_4 	RXTXLostPackets 	12
scalar MyScenario.node[253].nic.mac1609_4 	TotalLostPackets 	36
scalar MyScenario.node[253].nic.mac1609_4 	DroppedPacketsInMac 	0
scalar MyScenario.node[253].nic.mac1609_4 	TooLittleTime 	0
scalar MyScenario.node[253].nic.mac1609_4 	TimesIntoBackoff 	1
scalar MyScenario.node[253].nic.mac1609_4 	SlotsBackoff 	0
scalar MyScenario.node[253].nic.mac1609_4 	NumInternalContention 	0
scalar MyScenario.node[253].nic.mac1609_4 	totalBusyTime 	0.002553096495
scalar MyScenario.node[253].veinsmobility 	startTime 	4
scalar MyScenario.node[253].veinsmobility 	totalTime 	46
scalar MyScenario.node[253].veinsmobility 	stopTime 	51
scalar MyScenario.node[253].veinsmobility 	minSpeed 	0.010083758123034
scalar MyScenario.node[253].veinsmobility 	maxSpeed 	13.848687983654
scalar MyScenario.node[253].veinsmobility 	totalDistance 	479.20326926059
scalar MyScenario.node[253].veinsmobility 	totalCO2Emission 	139.05289870996
scalar MyScenario.node[61].appl 	generatedWSMs 	1
scalar MyScenario.node[61].appl 	receivedWSMs 	1
scalar MyScenario.node[61].appl 	generatedBSMs 	0
scalar MyScenario.node[61].appl 	receivedBSMs 	0
scalar MyScenario.node[61].appl 	generatedWSAs 	0
scalar MyScenario.node[61].appl 	receivedWSAs 	0
scalar MyScenario.node[61].nic.phy80211p 	busyTime 	6.496e-05
scalar MyScenario.node[61].nic.mac1609_4 	ReceivedUnicastPackets 	0
scalar MyScenario.node[61].nic.mac1609_4 	ReceivedBroadcasts 	1
scalar MyScenario.node[61].nic.mac1609_4 	SentPackets 	1
scalar MyScenario.node[61].nic.mac1609_4 	SNIRLostPackets 	13
scalar MyScenario.node[61].nic.mac1609_4 	RXTXLostPackets 	20
scalar MyScenario.node[61].nic.mac1609_4 	TotalLostPackets 	33
scalar MyScenario.node[61].nic.mac1609_4 	DroppedPacketsInMac 	0
scalar MyScenario.node[61].nic.mac1609_4 	TooLittleTime 	0
scalar MyScenario.node[61].nic.mac1609_4 	TimesIntoBackoff 	1
scalar MyScenario.node[61].nic.mac1609_4 	SlotsBackoff 	0
scalar MyScenario.node[61].nic.mac1609_4 	NumInternalContention 	0
scalar MyScenario.node[61].nic.mac1609_4 	totalBusyTime 	0.001161148828
scalar MyScenario.node[61].veinsmobility 	startTime 	1
scalar MyScenario.node[61].veinsmobility 	totalTime 	49
scalar MyScenario.node[61].veinsmobility 	stopTime 	51
scalar MyScenario.node[61].veinsmobility 	minSpeed 	2.0292241823161
scalar MyScenario.node[61].veinsmobility 	maxSpeed 	13.865377402981
scalar MyScenario.node[61].veinsmobility 	totalDistance 	574.69140204128
scalar MyScenario.node[61].veinsmobility 	totalCO2Emission 	150.24679034056
scalar MyScenario.node[403].appl 	generatedWSMs 	0
scalar MyScenario.node[403].appl 	receivedWSMs 	0
scalar MyScenario.node[403].appl 	generatedBSMs 	0
scalar MyScenario.node[403].appl 	receivedBSMs 	0
scalar MyScenario.node[403].appl 	generatedWSAs 	0
scalar MyScenario.node[403].appl 	receivedWSAs 	0
scalar MyScenario.node[403].nic.phy80211p 	busyTime 	0
scalar MyScenario.node[403].nic.mac1609_4 	ReceivedUnicastPackets 	0
scalar MyScenario.node[403].nic.mac1609_4 	ReceivedBroadcasts 	0
scalar MyScenario.node[403].nic.mac1609_4 	SentPackets 	0
scalar MyScenario.node[403].nic.mac1609_4 	SNIRLostPackets 	0
scalar MyScenario.node[403].nic.mac1609_4 	RXTXLostPackets 	0
scalar MyScenario.node[403].nic.mac1609_4 	TotalLostPackets 	0
scalar MyScenario.node[403].nic.mac1609_4 	DroppedPacketsInMac 	0
scalar MyScenario.node[403].nic.mac1609_4 	TooLittleTime 	0
scalar MyScenario.node[403].nic.mac1609_4 	TimesIntoBackoff 	0
scalar MyScenario.node[403].nic.mac1609_4 	SlotsBackoff 	0
scalar MyScenario.node[403].nic.mac1609_4 	NumInternalContention 	0
scalar MyScenario.node[403].nic.mac1609_4 	totalBusyTime 	0
scalar MyScenario.node[403].veinsmobility 	startTime 	19
scalar MyScenario.node[403].veinsmobility 	totalTime 	31
scalar MyScenario.node[403].veinsmobility 	stopTime 	51
scalar MyScenario.node[403].veinsmobility 	minSpeed 	5.5115508749536
scalar MyScenario.node[403].veinsmobility 	maxSpeed 	13.887332909671
scalar MyScenario.node[403].veinsmobility 	totalDistance 	365.14095863878
scalar MyScenario.node[403].veinsmobility 	totalCO2Emission 	100.75732733661
scalar MyScenario.node[166].appl 	generatedWSMs 	1
scalar MyScenario.node[166].appl 	receivedWSMs 	3
scalar MyScenario.node[166].appl 	generatedBSMs 	0
scalar MyScenario.node[166].appl 	receivedBSMs 	0
scalar MyScenario.node[166].appl 	generatedWSAs 	0
scalar MyScenario.node[166].appl 	receivedWSAs 	0
scalar MyScenario.node[166].nic.phy80211p 	busyTime 	0.00029232
scalar MyScenario.node[166].nic.mac1609_4 	ReceivedUnicastPackets 	0
scalar MyScenario.node[166].nic.mac1609_4 	ReceivedBroadcasts 	3
scalar MyScenario.node[166].nic.mac1609_4 	SentPackets 	1
scalar MyScenario.node[166].nic.mac1609_4 	SNIRLostPackets 	60
scalar MyScenario.node[166].nic.mac1609_4 	RXTXLostPackets 	2
scalar MyScenario.node[166].nic.mac1609_4 	TotalLostPackets 	62
scalar MyScenario.node[166].nic.mac1609_4 	DroppedPacketsInMac 	0
scalar MyScenario.node[166].nic.mac1609_4 	TooLittleTime 	0
scalar MyScenario.node[166].nic.mac1609_4 	TimesIntoBackoff 	1
scalar MyScenario.node[166].nic.mac1609_4 	SlotsBackoff 	0
scalar MyScenario.node[166].nic.mac1609_4 	NumInternalContention 	0
scalar MyScenario.node[166].nic.mac1609_4 	totalBusyTime 	0.002785
scalar MyScenario.node[166].veinsmobility 	startTime 	1
scalar MyScenario.node[166].veinsmobility 	totalTime 	49
scalar MyScenario.node[166].veinsmobility 	stopTime 	51
scalar MyScenario.node[166].veinsmobility 	minSpeed 	2.175591301918
scalar MyScenario.node[166].veinsmobility 	maxSpeed 	13.709955144487
scalar MyScenario.node[166].veinsmobility 	totalDistance 	563.23180901282
scalar MyScenario.node[166].veinsmobility 	totalCO2Emission 	154.54299332963
scalar MyScenario.node[306].appl 	generatedWSMs 	1
scalar MyScenario.node[306].appl 	receivedWSMs 	6
scalar MyScenario.node[306].appl 	generatedBSMs 	0
scalar MyScenario.node[306].appl 	receivedBSMs 	0
scalar MyScenario.node[306].appl 	generatedWSAs 	0
scalar MyScenario.node[306].appl 	receivedWSAs 	0
scalar MyScenario.node[306].nic.phy80211p 	busyTime 	0.00019816666666667
scalar MyScenario.node[306].nic.mac1609_4 	ReceivedUnicastPackets 	0
scalar MyScenario.node[306].nic.mac1609_4 	ReceivedBroadcasts 	6
scalar MyScenario.node[306].nic.mac1609_4 	SentPackets 	1
scalar MyScenario.node[306].nic.mac1609_4 	SNIRLostPackets 	35
scalar MyScenario.node[306].nic.mac1609_4 	RXTXLostPackets 	14
scalar MyScenario.node[306].nic.mac1609_4 	TotalLostPackets 	49
scalar MyScenario.node[306].nic.mac1609_4 	DroppedPacketsInMac 	0
scalar MyScenario.node[306].nic.mac1609_4 	TooLittleTime 	0
scalar MyScenario.node[306].nic.mac1609_4 	TimesIntoBackoff 	1
scalar MyScenario.node[306].nic.mac1609_4 	SlotsBackoff 	0
scalar MyScenario.node[306].nic.mac1609_4 	NumInternalContention 	0
scalar MyScenario.node[306].nic.mac1609_4 	totalBusyTime 	0.004177007342
scalar MyScenario.node[306].veinsmobility 	startTime 	4
scalar MyScenario.node[306].veinsmobility 	totalTime 	47
scalar MyScenario.node[306].veinsmobility 	stopTime 	52
scalar MyScenario.node[306].veinsmobility 	minSpeed 	7.910159710837e-07
scalar MyScenario.node[306].veinsmobility 	maxSpeed 	13.878408112889
scalar MyScenario.node[306].veinsmobility 	totalDistance 	272.14085304408
scalar MyScenario.node[306].veinsmobility 	totalCO2Emission 	116.29115106122
scalar MyScenario.node[401].appl 	generatedWSMs 	1
scalar MyScenario.node[401].appl 	receivedWSMs 	1
scalar MyScenario.node[401].appl 	generatedBSMs 	0
scalar MyScenario.node[401].appl 	receivedBSMs 	0
scalar MyScenario.node[401].appl 	generatedWSAs 	0
scalar MyScenario.node[401].appl 	receivedWSAs 	0
scalar MyScenario.node[401].nic.phy80211p 	busyTime 	1.2540540540541e-05
scalar MyScenario.node[401].nic.mac1609_4 	ReceivedUnicastPackets 	0
scalar MyScenario.node[401].nic.mac1609_4 	ReceivedBroadcasts 	1
scalar MyScenario.node[401].nic.mac1609_4 	SentPackets 	1
scalar MyScenario.node[401].nic.mac1609_4 	SNIRLostPackets 	1
scalar MyScenario.node[401].nic.mac1609_4 	RXTXLostPackets 	4
scalar MyScenario.node[401].nic.mac1609_4 	TotalLostPackets 	5
scalar MyScenario.node[401].nic.mac1609_4 	DroppedPacketsInMac 	0
scalar MyScenario.node[401].nic.mac1609_4 	TooLittleTime 	0
scalar MyScenario.node[401].nic.mac1609_4 	TimesIntoBackoff 	1
scalar MyScenario.node[401].nic.mac1609_4 	SlotsBackoff 	2
scalar MyScenario.node[401].nic.mac1609_4 	NumInternalContention 	0
scalar MyScenario.node[401].nic.mac1609_4 	totalBusyTime 	0.000697
scalar MyScenario.node[401].veinsmobility 	startTime 	15
scalar MyScenario.node[401].veinsmobility 	totalTime 	36
scalar MyScenario.node[401].veinsmobility 	stopTime 	52
scalar MyScenario.node[401].veinsmobility 	minSpeed 	3.9692431589436
scalar MyScenario.node[401].veinsmobility 	maxSpeed 	13.880058608786
scalar MyScenario.node[401].veinsmobility 	totalDistance 	444.98894574696
scalar MyScenario.node[401].veinsmobility 	totalCO2Emission 	93.028284689217
scalar MyScenario.node[259].appl 	generatedWSMs 	0
scalar MyScenario.node[259].appl 	receivedWSMs 	0
scalar MyScenario.node[259].appl 	generatedBSMs 	0
scalar MyScenario.node[259].appl 	receivedBSMs 	0
scalar MyScenario.node[259].appl 	generatedWSAs 	0
scalar MyScenario.node[259].appl 	receivedWSAs 	0
scalar MyScenario.node[259].nic.phy80211p 	busyTime 	2.4166666666667e-05
scalar MyScenario.node[259].nic.mac1609_4 	ReceivedUnicastPackets 	0
scalar MyScenario.node[259].nic.mac1609_4 	ReceivedBroadcasts 	0
scalar MyScenario.node[259].nic.mac1609_4 	SentPackets 	0
scalar MyScenario.node[259].nic.mac1609_4 	SNIRLostPackets 	5
scalar MyScenario.node[259].nic.mac1609_4 	RXTXLostPackets 	0
scalar MyScenario.node[259].nic.mac1609_4 	TotalLostPackets 	5
scalar MyScenario.node[259].nic.mac1609_4 	DroppedPacketsInMac 	0
scalar MyScenario.node[259].nic.mac1609_4 	TooLittleTime 	0
scalar MyScenario.node[259].nic.mac1609_4 	TimesIntoBackoff 	0
scalar MyScenario.node[259].nic.mac1609_4 	SlotsBackoff 	0
scalar MyScenario.node[259].nic.mac1609_4 	NumInternalContention 	0
scalar MyScenario.node[259].nic.mac1609_4 	totalBusyTime 	0.000464
scalar MyScenario.node[259].veinsmobility 	startTime 	4
scalar MyScenario.node[259].veinsmobility 	totalTime 	47
scalar MyScenario.node[259].veinsmobility 	stopTime 	52
scalar MyScenario.node[259].veinsmobility 	minSpeed 	1.6880002240418
scalar MyScenario.node[259].veinsmobility 	maxSpeed 	13.89450245942
scalar MyScenario.node[259].veinsmobility 	totalDistance 	586.24138323336
scalar MyScenario.node[259].veinsmobility 	totalCO2Emission 	130.64156026858
scalar MyScenario.node[304].appl 	generatedWSMs 	1
scalar MyScenario.node[304].appl 	receivedWSMs 	3
scalar MyScenario.node[304].appl 	generatedBSMs 	0
scalar MyScenario.node[304].appl 	receivedBSMs 	0
scalar MyScenario.node[304].appl 	generatedWSAs 	0
scalar MyScenario.node[304].appl 	receivedWSAs 	0
scalar MyScenario.node[304].nic.phy80211p 	busyTime 	0.00013730612244898
scalar MyScenario.node[304].nic.mac1609_4 	ReceivedUnicastPackets 	0
scalar MyScenario.node[304].nic.mac1609_4 	ReceivedBroadcasts 	3
scalar MyScenario.node[304].nic.mac1609_4 	SentPackets 	1
scalar MyScenario.node[304].nic.mac1609_4 	SNIRLostPackets 	26
scalar MyScenario.node[304].nic.mac1609_4 	RXTXLostPackets 	26
scalar MyScenario.node[304].nic.mac1609_4 	TotalLostPackets 	52
scalar MyScenario.node[304].nic.mac1609_4 	DroppedPacketsInMac 	0
scalar MyScenario.node[304].nic.mac1609_4 	TooLittleTime 	0
scalar MyScenario.node[304].nic.mac1609_4 	TimesIntoBackoff 	1
scalar MyScenario.node[304].nic.mac1609_4 	SlotsBackoff 	2
scalar MyScenario.node[304].nic.mac1609_4 	NumInternalContention 	0
scalar MyScenario.node[304].nic.mac1609_4 	totalBusyTime 	0.003017354117
scalar MyScenario.node[304].veinsmobility 	startTime 	4
scalar MyScenario.node[304].veinsmobility 	totalTime 	48
scalar MyScenario.node[304].veinsmobility 	stopTime 	53
scalar MyScenario.node[304].veinsmobility 	minSpeed 	0.00051869009690303
scalar MyScenario.node[304].veinsmobility 	maxSpeed 	13.850967841735
scalar MyScenario.node[304].veinsmobility 	totalDistance 	282.8462230806
scalar MyScenario.node[304].veinsmobility 	totalCO2Emission 	138.22889987145
[...]
scalar MyScenario.node[376].nic.mac1609_4 	DroppedPacketsInMac 	0
scalar MyScenario.node[376].nic.mac1609_4 	TooLittleTime 	0
scalar MyScenario.node[376].nic.mac1609_4 	TimesIntoBackoff 	1
scalar MyScenario.node[376].nic.mac1609_4 	SlotsBackoff 	3
scalar MyScenario.node[376].nic.mac1609_4 	NumInternalContention 	0
scalar MyScenario.node[376].nic.mac1609_4 	totalBusyTime 	0.001393390983
scalar MyScenario.node[376].veinsmobility 	startTime 	7
scalar MyScenario.node[376].veinsmobility 	totalTime 	176
scalar MyScenario.node[376].veinsmobility 	stopTime 	184
scalar MyScenario.node[376].veinsmobility 	minSpeed 	3.6604376982704e-11
scalar MyScenario.node[376].veinsmobility 	maxSpeed 	13.881321369391
scalar MyScenario.node[376].veinsmobility 	totalDistance 	1171.8645227631
scalar MyScenario.node[376].veinsmobility 	totalCO2Emission 	449.97541097594
scalar MyScenario.node[79].appl 	generatedWSMs 	1
scalar MyScenario.node[79].appl 	receivedWSMs 	4
scalar MyScenario.node[79].appl 	generatedBSMs 	0
scalar MyScenario.node[79].appl 	receivedBSMs 	0
scalar MyScenario.node[79].appl 	generatedWSAs 	0
scalar MyScenario.node[79].appl 	receivedWSAs 	0
scalar MyScenario.node[79].nic.phy80211p 	busyTime 	5.9260869565217e-05
scalar MyScenario.node[79].nic.mac1609_4 	ReceivedUnicastPackets 	0
scalar MyScenario.node[79].nic.mac1609_4 	ReceivedBroadcasts 	4
scalar MyScenario.node[79].nic.mac1609_4 	SentPackets 	1
scalar MyScenario.node[79].nic.mac1609_4 	SNIRLostPackets 	43
scalar MyScenario.node[79].nic.mac1609_4 	RXTXLostPackets 	5
scalar MyScenario.node[79].nic.mac1609_4 	TotalLostPackets 	48
scalar MyScenario.node[79].nic.mac1609_4 	DroppedPacketsInMac 	0
scalar MyScenario.node[79].nic.mac1609_4 	TooLittleTime 	0
scalar MyScenario.node[79].nic.mac1609_4 	TimesIntoBackoff 	1
scalar MyScenario.node[79].nic.mac1609_4 	SlotsBackoff 	2
scalar MyScenario.node[79].nic.mac1609_4 	NumInternalContention 	0
scalar MyScenario.node[79].nic.mac1609_4 	totalBusyTime 	0.002553486968
scalar MyScenario.node[79].veinsmobility 	startTime 	1
scalar MyScenario.node[79].veinsmobility 	totalTime 	183
scalar MyScenario.node[79].veinsmobility 	stopTime 	185
scalar MyScenario.node[79].veinsmobility 	minSpeed 	0
scalar MyScenario.node[79].veinsmobility 	maxSpeed 	13.869579086127
scalar MyScenario.node[79].veinsmobility 	totalDistance 	1269.1870952569
scalar MyScenario.node[79].veinsmobility 	totalCO2Emission 	464.66775766828
scalar MyScenario.node[176].appl 	generatedWSMs 	1
scalar MyScenario.node[176].appl 	receivedWSMs 	6
scalar MyScenario.node[176].appl 	generatedBSMs 	0
scalar MyScenario.node[176].appl 	receivedBSMs 	0
scalar MyScenario.node[176].appl 	generatedWSAs 	0
scalar MyScenario.node[176].appl 	receivedWSAs 	0
scalar MyScenario.node[176].nic.phy80211p 	busyTime 	6.8086956521739e-05
scalar MyScenario.node[176].nic.mac1609_4 	ReceivedUnicastPackets 	0
scalar MyScenario.node[176].nic.mac1609_4 	ReceivedBroadcasts 	6
scalar MyScenario.node[176].nic.mac1609_4 	SentPackets 	1
scalar MyScenario.node[176].nic.mac1609_4 	SNIRLostPackets 	48
scalar MyScenario.node[176].nic.mac1609_4 	RXTXLostPackets 	22
scalar MyScenario.node[176].nic.mac1609_4 	TotalLostPackets 	70
scalar MyScenario.node[176].nic.mac1609_4 	DroppedPacketsInMac 	0
scalar MyScenario.node[176].nic.mac1609_4 	TooLittleTime 	0
scalar MyScenario.node[176].nic.mac1609_4 	TimesIntoBackoff 	1
scalar MyScenario.node[176].nic.mac1609_4 	SlotsBackoff 	0
scalar MyScenario.node[176].nic.mac1609_4 	NumInternalContention 	0
scalar MyScenario.node[176].nic.mac1609_4 	totalBusyTime 	0.003481007749
scalar MyScenario.node[176].veinsmobility 	startTime 	1
scalar MyScenario.node[176].veinsmobility 	totalTime 	183
scalar MyScenario.node[176].veinsmobility 	stopTime 	185
scalar MyScenario.node[176].veinsmobility 	minSpeed 	2.7578599089557e-15
scalar MyScenario.node[176].veinsmobility 	maxSpeed 	13.887723016762
scalar MyScenario.node[176].veinsmobility 	totalDistance 	1155.5475235939
scalar MyScenario.node[176].veinsmobility 	totalCO2Emission 	461.5746372652
scalar MyScenario.node[278].appl 	generatedWSMs 	1
scalar MyScenario.node[278].appl 	receivedWSMs 	1
scalar MyScenario.node[278].appl 	generatedBSMs 	0
scalar MyScenario.node[278].appl 	receivedBSMs 	0
scalar MyScenario.node[278].appl 	generatedWSAs 	0
scalar MyScenario.node[278].appl 	receivedWSAs 	0
scalar MyScenario.node[278].nic.phy80211p 	busyTime 	1.6391304347826e-05
scalar MyScenario.node[278].nic.mac1609_4 	ReceivedUnicastPackets 	0
scalar MyScenario.node[278].nic.mac1609_4 	ReceivedBroadcasts 	1
scalar MyScenario.node[278].nic.mac1609_4 	SentPackets 	1
scalar MyScenario.node[278].nic.mac1609_4 	SNIRLostPackets 	12
scalar MyScenario.node[278].nic.mac1609_4 	RXTXLostPackets 	5
scalar MyScenario.node[278].nic.mac1609_4 	TotalLostPackets 	17
scalar MyScenario.node[278].nic.mac1609_4 	DroppedPacketsInMac 	0
scalar MyScenario.node[278].nic.mac1609_4 	TooLittleTime 	0
scalar MyScenario.node[278].nic.mac1609_4 	TimesIntoBackoff 	1
scalar MyScenario.node[278].nic.mac1609_4 	SlotsBackoff 	1
scalar MyScenario.node[278].nic.mac1609_4 	NumInternalContention 	0
scalar MyScenario.node[278].nic.mac1609_4 	totalBusyTime 	0.000697
scalar MyScenario.node[278].veinsmobility 	startTime 	4
scalar MyScenario.node[278].veinsmobility 	totalTime 	183
scalar MyScenario.node[278].veinsmobility 	stopTime 	188
scalar MyScenario.node[278].veinsmobility 	minSpeed 	2.5595033770636e-15
scalar MyScenario.node[278].veinsmobility 	maxSpeed 	13.883836090378
scalar MyScenario.node[278].veinsmobility 	totalDistance 	1370.4992468869
scalar MyScenario.node[278].veinsmobility 	totalCO2Emission 	501.57131882139
scalar MyScenario.node[262].appl 	generatedWSMs 	0
scalar MyScenario.node[262].appl 	receivedWSMs 	0
scalar MyScenario.node[262].appl 	generatedBSMs 	0
scalar MyScenario.node[262].appl 	receivedBSMs 	0
scalar MyScenario.node[262].appl 	generatedWSAs 	0
scalar MyScenario.node[262].appl 	receivedWSAs 	0
scalar MyScenario.node[262].nic.phy80211p 	busyTime 	1.6215053763441e-05
scalar MyScenario.node[262].nic.mac1609_4 	ReceivedUnicastPackets 	0
scalar MyScenario.node[262].nic.mac1609_4 	ReceivedBroadcasts 	0
scalar MyScenario.node[262].nic.mac1609_4 	SentPackets 	0
scalar MyScenario.node[262].nic.mac1609_4 	SNIRLostPackets 	13
scalar MyScenario.node[262].nic.mac1609_4 	RXTXLostPackets 	0
scalar MyScenario.node[262].nic.mac1609_4 	TotalLostPackets 	13
scalar MyScenario.node[262].nic.mac1609_4 	DroppedPacketsInMac 	0
scalar MyScenario.node[262].nic.mac1609_4 	TooLittleTime 	0
scalar MyScenario.node[262].nic.mac1609_4 	TimesIntoBackoff 	0
scalar MyScenario.node[262].nic.mac1609_4 	SlotsBackoff 	0
scalar MyScenario.node[262].nic.mac1609_4 	NumInternalContention 	0
scalar MyScenario.node[262].nic.mac1609_4 	totalBusyTime 	0.000928
scalar MyScenario.node[262].veinsmobility 	startTime 	4
scalar MyScenario.node[262].veinsmobility 	totalTime 	185
scalar MyScenario.node[262].veinsmobility 	stopTime 	190
scalar MyScenario.node[262].veinsmobility 	minSpeed 	5.4768462700827e-13
scalar MyScenario.node[262].veinsmobility 	maxSpeed 	13.887255560141
scalar MyScenario.node[262].veinsmobility 	totalDistance 	1168.5990462431
scalar MyScenario.node[262].veinsmobility 	totalCO2Emission 	490.65629530845
scalar MyScenario.node[274].appl 	generatedWSMs 	1
scalar MyScenario.node[274].appl 	receivedWSMs 	3
scalar MyScenario.node[274].appl 	generatedBSMs 	0
scalar MyScenario.node[274].appl 	receivedBSMs 	0
scalar MyScenario.node[274].appl 	generatedWSAs 	0
scalar MyScenario.node[274].appl 	receivedWSAs 	0
scalar MyScenario.node[274].nic.phy80211p 	busyTime 	3.8459893048128e-05
scalar MyScenario.node[274].nic.mac1609_4 	ReceivedUnicastPackets 	0
scalar MyScenario.node[274].nic.mac1609_4 	ReceivedBroadcasts 	3
scalar MyScenario.node[274].nic.mac1609_4 	SentPackets 	1
scalar MyScenario.node[274].nic.mac1609_4 	SNIRLostPackets 	28
scalar MyScenario.node[274].nic.mac1609_4 	RXTXLostPackets 	5
scalar MyScenario.node[274].nic.mac1609_4 	TotalLostPackets 	33
scalar MyScenario.node[274].nic.mac1609_4 	DroppedPacketsInMac 	0
scalar MyScenario.node[274].nic.mac1609_4 	TooLittleTime 	0
scalar MyScenario.node[274].nic.mac1609_4 	TimesIntoBackoff 	1
scalar MyScenario.node[274].nic.mac1609_4 	SlotsBackoff 	0
scalar MyScenario.node[274].nic.mac1609_4 	NumInternalContention 	0
scalar MyScenario.node[274].nic.mac1609_4 	totalBusyTime 	0.003017
scalar MyScenario.node[274].veinsmobility 	startTime 	4
scalar MyScenario.node[274].veinsmobility 	totalTime 	186
scalar MyScenario.node[274].veinsmobility 	stopTime 	191
scalar MyScenario.node[274].veinsmobility 	minSpeed 	0
scalar MyScenario.node[274].veinsmobility 	maxSpeed 	13.824374071951
scalar MyScenario.node[274].veinsmobility 	totalDistance 	1166.0601746923
scalar MyScenario.node[274].veinsmobility 	totalCO2Emission 	484.37111811823
scalar MyScenario.node[172].appl 	generatedWSMs 	0
scalar MyScenario.node[172].appl 	receivedWSMs 	0
scalar MyScenario.node[172].appl 	generatedBSMs 	0
scalar MyScenario.node[172].appl 	receivedBSMs 	0
scalar MyScenario.node[172].appl 	generatedWSAs 	0
scalar MyScenario.node[172].appl 	receivedWSAs 	0
scalar MyScenario.node[172].nic.phy80211p 	busyTime 	3.2968421052632e-05
scalar MyScenario.node[172].nic.mac1609_4 	ReceivedUnicastPackets 	0
scalar MyScenario.node[172].nic.mac1609_4 	ReceivedBroadcasts 	0
scalar MyScenario.node[172].nic.mac1609_4 	SentPackets 	0
scalar MyScenario.node[172].nic.mac1609_4 	SNIRLostPackets 	27
scalar MyScenario.node[172].nic.mac1609_4 	RXTXLostPackets 	0
scalar MyScenario.node[172].nic.mac1609_4 	TotalLostPackets 	27
scalar MyScenario.node[172].nic.mac1609_4 	DroppedPacketsInMac 	0
scalar MyScenario.node[172].nic.mac1609_4 	TooLittleTime 	0
scalar MyScenario.node[172].nic.mac1609_4 	TimesIntoBackoff 	0
scalar MyScenario.node[172].nic.mac1609_4 	SlotsBackoff 	0
scalar MyScenario.node[172].nic.mac1609_4 	NumInternalContention 	0
scalar MyScenario.node[172].nic.mac1609_4 	totalBusyTime 	0.001856
scalar MyScenario.node[172].veinsmobility 	startTime 	1
scalar MyScenario.node[172].veinsmobility 	totalTime 	189
scalar MyScenario.node[172].veinsmobility 	stopTime 	191
scalar MyScenario.node[172].veinsmobility 	minSpeed 	1.1452596362657e-14
scalar MyScenario.node[172].veinsmobility 	maxSpeed 	13.892477155081
scalar MyScenario.node[172].veinsmobility 	totalDistance 	1255.7310997805
scalar MyScenario.node[172].veinsmobility 	totalCO2Emission 	488.13088229226
scalar MyScenario.node[294].appl 	generatedWSMs 	1
scalar MyScenario.node[294].appl 	receivedWSMs 	2
scalar MyScenario.node[294].appl 	generatedBSMs 	0
scalar MyScenario.node[294].appl 	receivedBSMs 	0
scalar MyScenario.node[294].appl 	generatedWSAs 	0
scalar MyScenario.node[294].appl 	receivedWSAs 	0
scalar MyScenario.node[294].nic.phy80211p 	busyTime 	3.8255319148936e-05
scalar MyScenario.node[294].nic.mac1609_4 	ReceivedUnicastPackets 	0
scalar MyScenario.node[294].nic.mac1609_4 	ReceivedBroadcasts 	2
scalar MyScenario.node[294].nic.mac1609_4 	SentPackets 	1
scalar MyScenario.node[294].nic.mac1609_4 	SNIRLostPackets 	29
scalar MyScenario.node[294].nic.mac1609_4 	RXTXLostPackets 	1
scalar MyScenario.node[294].nic.mac1609_4 	TotalLostPackets 	30
scalar MyScenario.node[294].nic.mac1609_4 	DroppedPacketsInMac 	0
scalar MyScenario.node[294].nic.mac1609_4 	TooLittleTime 	0
scalar MyScenario.node[294].nic.mac1609_4 	TimesIntoBackoff 	1
scalar MyScenario.node[294].nic.mac1609_4 	SlotsBackoff 	2
scalar MyScenario.node[294].nic.mac1609_4 	NumInternalContention 	0
scalar MyScenario.node[294].nic.mac1609_4 	totalBusyTime 	0.001625
scalar MyScenario.node[294].veinsmobility 	startTime 	4
scalar MyScenario.node[294].veinsmobility 	totalTime 	187
scalar MyScenario.node[294].veinsmobility 	stopTime 	192
scalar MyScenario.node[294].veinsmobility 	minSpeed 	2.7488390294526e-08
scalar MyScenario.node[294].veinsmobility 	maxSpeed 	13.893655330897
scalar MyScenario.node[294].veinsmobility 	totalDistance 	1160.4232036124
scalar MyScenario.node[294].veinsmobility 	totalCO2Emission 	461.99713731488
scalar MyScenario.node[283].appl 	generatedWSMs 	0
scalar MyScenario.node[283].appl 	receivedWSMs 	0
scalar MyScenario.node[283].appl 	generatedBSMs 	0
scalar MyScenario.node[283].appl 	receivedBSMs 	0
scalar MyScenario.node[283].appl 	generatedWSAs 	0
scalar MyScenario.node[283].appl 	receivedWSAs 	0
scalar MyScenario.node[283].nic.phy80211p 	busyTime 	1.2083333333333e-05
scalar MyScenario.node[283].nic.mac1609_4 	ReceivedUnicastPackets 	0
scalar MyScenario.node[283].nic.mac1609_4 	ReceivedBroadcasts 	0
scalar MyScenario.node[283].nic.mac1609_4 	SentPackets 	0
scalar MyScenario.node[283].nic.mac1609_4 	SNIRLostPackets 	10
scalar MyScenario.node[283].nic.mac1609_4 	RXTXLostPackets 	0
scalar MyScenario.node[283].nic.mac1609_4 	TotalLostPackets 	10
scalar MyScenario.node[283].nic.mac1609_4 	DroppedPacketsInMac 	0
scalar MyScenario.node[283].nic.mac1609_4 	TooLittleTime 	0
scalar MyScenario.node[283].nic.mac1609_4 	TimesIntoBackoff 	0
scalar MyScenario.node[283].nic.mac1609_4 	SlotsBackoff 	0
scalar MyScenario.node[283].nic.mac1609_4 	NumInternalContention 	0
scalar MyScenario.node[283].nic.mac1609_4 	totalBusyTime 	0.00116
scalar MyScenario.node[283].veinsmobility 	startTime 	4
scalar MyScenario.node[283].veinsmobility 	totalTime 	191
scalar MyScenario.node[283].veinsmobility 	stopTime 	196
scalar MyScenario.node[283].veinsmobility 	minSpeed 	9.1209835292472e-13
scalar MyScenario.node[283].veinsmobility 	maxSpeed 	13.871571491892
scalar MyScenario.node[283].veinsmobility 	totalDistance 	1358.2567870804
scalar MyScenario.node[283].veinsmobility 	totalCO2Emission 	515.13287654209
scalar MyScenario.node[114].appl 	generatedWSMs 	1
scalar MyScenario.node[114].appl 	receivedWSMs 	3
scalar MyScenario.node[114].appl 	generatedBSMs 	0
scalar MyScenario.node[114].appl 	receivedBSMs 	0
scalar MyScenario.node[114].appl 	generatedWSAs 	0
scalar MyScenario.node[114].appl 	receivedWSAs 	0
scalar MyScenario.node[114].nic.phy80211p 	busyTime 	4.9969230769231e-05
scalar MyScenario.node[114].nic.mac1609_4 	ReceivedUnicastPackets 	0
scalar MyScenario.node[114].nic.mac1609_4 	ReceivedBroadcasts 	3
scalar MyScenario.node[114].nic.mac1609_4 	SentPackets 	1
scalar MyScenario.node[114].nic.mac1609_4 	SNIRLostPackets 	39
scalar MyScenario.node[114].nic.mac1609_4 	RXTXLostPackets 	23
scalar MyScenario.node[114].nic.mac1609_4 	TotalLostPackets 	62
scalar MyScenario.node[114].nic.mac1609_4 	DroppedPacketsInMac 	0
scalar MyScenario.node[114].nic.mac1609_4 	TooLittleTime 	0
scalar MyScenario.node[114].nic.mac1609_4 	TimesIntoBackoff 	1
scalar MyScenario.node[114].nic.mac1609_4 	SlotsBackoff 	0
scalar MyScenario.node[114].nic.mac1609_4 	NumInternalContention 	0
scalar MyScenario.node[114].nic.mac1609_4 	totalBusyTime 	0.003249
scalar MyScenario.node[114].veinsmobility 	startTime 	1
scalar MyScenario.node[114].veinsmobility 	totalTime 	194
scalar MyScenario.node[114].veinsmobility 	stopTime 	196
scalar MyScenario.node[114].veinsmobility 	minSpeed 	1.8595946640297e-16
scalar MyScenario.node[114].veinsmobility 	maxSpeed 	13.897524012649
scalar MyScenario.node[114].veinsmobility 	totalDistance 	1564.5205855687
scalar MyScenario.node[114].veinsmobility 	totalCO2Emission 	510.2500466651
scalar MyScenario.node[328].appl 	generatedWSMs 	0
scalar MyScenario.node[328].appl 	receivedWSMs 	0
scalar MyScenario.node[328].appl 	generatedBSMs 	0
scalar MyScenario.node[328].appl 	receivedBSMs 	0
scalar MyScenario.node[328].appl 	generatedWSAs 	0
scalar MyScenario.node[328].appl 	receivedWSAs 	0
scalar MyScenario.node[328].nic.phy80211p 	busyTime 	0
scalar MyScenario.node[328].nic.mac1609_4 	ReceivedUnicastPackets 	0
scalar MyScenario.node[328].nic.mac1609_4 	ReceivedBroadcasts 	0
scalar MyScenario.node[328].nic.mac1609_4 	SentPackets 	0
scalar MyScenario.node[328].nic.mac1609_4 	SNIRLostPackets 	0
scalar MyScenario.node[328].nic.mac1609_4 	RXTXLostPackets 	0
scalar MyScenario.node[328].nic.mac1609_4 	TotalLostPackets 	0
scalar MyScenario.node[328].nic.mac1609_4 	DroppedPacketsInMac 	0
scalar MyScenario.node[328].nic.mac1609_4 	TooLittleTime 	0
scalar MyScenario.node[328].nic.mac1609_4 	TimesIntoBackoff 	0
scalar MyScenario.node[328].nic.mac1609_4 	SlotsBackoff 	0
scalar MyScenario.node[328].nic.mac1609_4 	NumInternalContention 	0
scalar MyScenario.node[328].nic.mac1609_4 	totalBusyTime 	0
scalar MyScenario.node[328].veinsmobility 	startTime 	4
scalar MyScenario.node[328].veinsmobility 	totalTime 	192
scalar MyScenario.node[328].veinsmobility 	stopTime 	197
scalar MyScenario.node[328].veinsmobility 	minSpeed 	1.2553875983091e-09
scalar MyScenario.node[328].veinsmobility 	maxSpeed 	13.898164343345
scalar MyScenario.node[328].veinsmobility 	totalDistance 	1868.3404475811
scalar MyScenario.node[328].veinsmobility 	totalCO2Emission 	567.68166286841
scalar MyScenario.node[65].appl 	generatedWSMs 	1
scalar MyScenario.node[65].appl 	receivedWSMs 	2
scalar MyScenario.node[65].appl 	generatedBSMs 	0
scalar MyScenario.node[65].appl 	receivedBSMs 	0
scalar MyScenario.node[65].appl 	generatedWSAs 	0
scalar MyScenario.node[65].appl 	receivedWSAs 	0
scalar MyScenario.node[65].nic.phy80211p 	busyTime 	1.8938775510204e-05
scalar MyScenario.node[65].nic.mac1609_4 	ReceivedUnicastPackets 	0
scalar MyScenario.node[65].nic.mac1609_4 	ReceivedBroadcasts 	2
scalar MyScenario.node[65].nic.mac1609_4 	SentPackets 	1
scalar MyScenario.node[65].nic.mac1609_4 	SNIRLostPackets 	14
scalar MyScenario.node[65].nic.mac1609_4 	RXTXLostPackets 	9
scalar MyScenario.node[65].nic.mac1609_4 	TotalLostPackets 	23
scalar MyScenario.node[65].nic.mac1609_4 	DroppedPacketsInMac 	0
scalar MyScenario.node[65].nic.mac1609_4 	TooLittleTime 	0
scalar MyScenario.node[65].nic.mac1609_4 	TimesIntoBackoff 	1
scalar MyScenario.node[65].nic.mac1609_4 	SlotsBackoff 	0
scalar MyScenario.node[65].nic.mac1609_4 	NumInternalContention 	0
scalar MyScenario.node[65].nic.mac1609_4 	totalBusyTime 	0.001161153802
scalar MyScenario.node[65].veinsmobility 	startTime 	1
scalar MyScenario.node[65].veinsmobility 	totalTime 	195
scalar MyScenario.node[65].veinsmobility 	stopTime 	197
scalar MyScenario.node[65].veinsmobility 	minSpeed 	3.2855790341899e-08
scalar MyScenario.node[65].veinsmobility 	maxSpeed 	13.886423330428
scalar MyScenario.node[65].veinsmobility 	totalDistance 	1257.2448536653
scalar MyScenario.node[65].veinsmobility 	totalCO2Emission 	485.66567643863
scalar MyScenario.node[59].appl 	generatedWSMs 	0
scalar MyScenario.node[59].appl 	receivedWSMs 	0
scalar MyScenario.node[59].appl 	generatedBSMs 	0
scalar MyScenario.node[59].appl 	receivedBSMs 	0
scalar MyScenario.node[59].appl 	generatedWSAs 	0
scalar MyScenario.node[59].appl 	receivedWSAs 	0
scalar MyScenario.node[59].nic.phy80211p 	busyTime 	1.1372549019608e-05
scalar MyScenario.node[59].nic.mac1609_4 	ReceivedUnicastPackets 	0
scalar MyScenario.node[59].nic.mac1609_4 	ReceivedBroadcasts 	0
scalar MyScenario.node[59].nic.mac1609_4 	SentPackets 	0
scalar MyScenario.node[59].nic.mac1609_4 	SNIRLostPackets 	10
scalar MyScenario.node[59].nic.mac1609_4 	RXTXLostPackets 	0
scalar MyScenario.node[59].nic.mac1609_4 	TotalLostPackets 	10
scalar MyScenario.node[59].nic.mac1609_4 	DroppedPacketsInMac 	0
scalar MyScenario.node[59].nic.mac1609_4 	TooLittleTime 	0
scalar MyScenario.node[59].nic.mac1609_4 	TimesIntoBackoff 	0
scalar MyScenario.node[59].nic.mac1609_4 	SlotsBackoff 	0
scalar MyScenario.node[59].nic.mac1609_4 	NumInternalContention 	0
scalar MyScenario.node[59].nic.mac1609_4 	totalBusyTime 	0.00116
scalar MyScenario.node[59].veinsmobility 	startTime 	1
scalar MyScenario.node[59].veinsmobility 	totalTime 	203
scalar MyScenario.node[59].veinsmobility 	stopTime 	205
scalar MyScenario.node[59].veinsmobility 	minSpeed 	9.5891240179896e-08
scalar MyScenario.node[59].veinsmobility 	maxSpeed 	13.848706023674
scalar MyScenario.node[59].veinsmobility 	totalDistance 	1350.3891458127
scalar MyScenario.node[59].veinsmobility 	totalCO2Emission 	541.08400950039
