version 2
run General-7-20170829-17:38:54-8100
attr configname General
attr datetime 20170829-17:38:54
attr density 100
attr experiment General
attr inifile omnetpp.ini
attr iterationvars $density=100
attr iterationvars2 "$density=100, $repetition=7"
attr measurement $density=100
attr network com.liborio.pi.MyScenario
attr processid 8100
attr repetition 7
attr replication #7
attr resultdir results
attr runnumber 7
attr seedset 7
param **.coreDebug false
param **.debug false
param *.**.nic.mac1609_4.bitrate 6Mbps
param *.**.nic.mac1609_4.txPower 20mW
param *.**.nic.mac1609_4.useServiceChannel true
param *.**.nic.phy80211p.analogueModels "xmldoc(\"config.xml\")"
param *.**.nic.phy80211p.antenna "xmldoc(\"antenna.xml\", \"/root/Antenna[@id='monopole']\")"
param *.**.nic.phy80211p.decider "xmldoc(\"config.xml\")"
param *.**.nic.phy80211p.sensitivity -84.39dBm
param *.**.nic.phy80211p.thermalNoise -110dBm
param *.**.nic.phy80211p.usePropagationDelay true
param *.**.nic.phy80211p.useThermalNoise true
param *.annotations.draw true
param *.connectionManager.drawMaxIntfDist false
param *.connectionManager.maxInterfDist 2600m
param *.connectionManager.sendDirect true
param *.manager.autoShutdown true
param *.manager.host "\"localhost\""
param *.manager.launchConfig "xmldoc(string(${density = 100, 200, 300, 400})+\"_\"+ string(${repetition})+\".launchd.xml\")"
param *.manager.port 9999
param *.manager.updateInterval 1s
param *.node[*].appl.beaconInterval 1s
param *.node[*].appl.dataOnSch true
param *.node[*].appl.headerLength "80 bit"
param *.node[*].appl.isSource false
param *.node[*].appl.numMsgs 100
param *.node[*].appl.sendBeacons false
param *.node[*].appl.stopTrafficTime 130s
param *.node[*].appl.wsmInterval 3s
param *.node[*].applType "\"Flooding\""
param *.node[*].veinsmobility.x 0
param *.node[*].veinsmobility.y 0
param *.node[*].veinsmobility.z 1.895
param *.node[*].veinsmobilityType.debug true
param *.node[0].appl.isSource true
param *.playgroundSizeX 2500m
param *.playgroundSizeY 2500m
param *.playgroundSizeZ 50m

scalar . 	density 	100
scalar MyScenario.node[50].appl 	generatedWSMs 	0
scalar MyScenario.node[50].appl 	receivedWSMs 	0
scalar MyScenario.node[50].appl 	generatedBSMs 	0
scalar MyScenario.node[50].appl 	receivedBSMs 	0
scalar MyScenario.node[50].appl 	generatedWSAs 	0
scalar MyScenario.node[50].appl 	receivedWSAs 	0
scalar MyScenario.node[50].nic.phy80211p 	busyTime 	0
scalar MyScenario.node[50].nic.mac1609_4 	ReceivedUnicastPackets 	0
scalar MyScenario.node[50].nic.mac1609_4 	ReceivedBroadcasts 	0
scalar MyScenario.node[50].nic.mac1609_4 	SentPackets 	0
scalar MyScenario.node[50].nic.mac1609_4 	SNIRLostPackets 	0
scalar MyScenario.node[50].nic.mac1609_4 	RXTXLostPackets 	0
scalar MyScenario.node[50].nic.mac1609_4 	TotalLostPackets 	0
scalar MyScenario.node[50].nic.mac1609_4 	DroppedPacketsInMac 	0
scalar MyScenario.node[50].nic.mac1609_4 	TooLittleTime 	0
scalar MyScenario.node[50].nic.mac1609_4 	TimesIntoBackoff 	0
scalar MyScenario.node[50].nic.mac1609_4 	SlotsBackoff 	0
scalar MyScenario.node[50].nic.mac1609_4 	NumInternalContention 	0
scalar MyScenario.node[50].nic.mac1609_4 	totalBusyTime 	0
scalar MyScenario.node[50].veinsmobility 	startTime 	1
scalar MyScenario.node[50].veinsmobility 	totalTime 	9
scalar MyScenario.node[50].veinsmobility 	stopTime 	11
scalar MyScenario.node[50].veinsmobility 	minSpeed 	2.1466167082312
scalar MyScenario.node[50].veinsmobility 	maxSpeed 	13.590812190203
scalar MyScenario.node[50].veinsmobility 	totalDistance 	84.694390939549
scalar MyScenario.node[50].veinsmobility 	totalCO2Emission 	37.100036008387
scalar MyScenario.node[86].appl 	generatedWSMs 	1
scalar MyScenario.node[86].appl 	receivedWSMs 	4
scalar MyScenario.node[86].appl 	generatedBSMs 	0
scalar MyScenario.node[86].appl 	receivedBSMs 	0
scalar MyScenario.node[86].appl 	generatedWSAs 	0
scalar MyScenario.node[86].appl 	receivedWSAs 	0
scalar MyScenario.node[86].nic.phy80211p 	busyTime 	0.000116
scalar MyScenario.node[86].nic.mac1609_4 	ReceivedUnicastPackets 	0
scalar MyScenario.node[86].nic.mac1609_4 	ReceivedBroadcasts 	4
scalar MyScenario.node[86].nic.mac1609_4 	SentPackets 	1
scalar MyScenario.node[86].nic.mac1609_4 	SNIRLostPackets 	5
scalar MyScenario.node[86].nic.mac1609_4 	RXTXLostPackets 	7
scalar MyScenario.node[86].nic.mac1609_4 	TotalLostPackets 	12
scalar MyScenario.node[86].nic.mac1609_4 	DroppedPacketsInMac 	0
scalar MyScenario.node[86].nic.mac1609_4 	TooLittleTime 	0
scalar MyScenario.node[86].nic.mac1609_4 	TimesIntoBackoff 	1
scalar MyScenario.node[86].nic.mac1609_4 	SlotsBackoff 	0
scalar MyScenario.node[86].nic.mac1609_4 	NumInternalContention 	0
scalar MyScenario.node[86].nic.mac1609_4 	totalBusyTime 	0.001393
scalar MyScenario.node[86].veinsmobility 	startTime 	1
scalar MyScenario.node[86].veinsmobility 	totalTime 	17
scalar MyScenario.node[86].veinsmobility 	stopTime 	19
scalar MyScenario.node[86].veinsmobility 	minSpeed 	2.1047765270807
scalar MyScenario.node[86].veinsmobility 	maxSpeed 	13.897878357209
scalar MyScenario.node[86].veinsmobility 	totalDistance 	182.34254420607
scalar MyScenario.node[86].veinsmobility 	totalCO2Emission 	56.285073043899
scalar MyScenario.node[14].appl 	generatedWSMs 	0
scalar MyScenario.node[14].appl 	receivedWSMs 	0
scalar MyScenario.node[14].appl 	generatedBSMs 	0
scalar MyScenario.node[14].appl 	receivedBSMs 	0
scalar MyScenario.node[14].appl 	generatedWSAs 	0
scalar MyScenario.node[14].appl 	receivedWSAs 	0
scalar MyScenario.node[14].nic.phy80211p 	busyTime 	0
scalar MyScenario.node[14].nic.mac1609_4 	ReceivedUnicastPackets 	0
scalar MyScenario.node[14].nic.mac1609_4 	ReceivedBroadcasts 	0
scalar MyScenario.node[14].nic.mac1609_4 	SentPackets 	0
scalar MyScenario.node[14].nic.mac1609_4 	SNIRLostPackets 	0
scalar MyScenario.node[14].nic.mac1609_4 	RXTXLostPackets 	0
scalar MyScenario.node[14].nic.mac1609_4 	TotalLostPackets 	0
scalar MyScenario.node[14].nic.mac1609_4 	DroppedPacketsInMac 	0
scalar MyScenario.node[14].nic.mac1609_4 	TooLittleTime 	0
scalar MyScenario.node[14].nic.mac1609_4 	TimesIntoBackoff 	0
scalar MyScenario.node[14].nic.mac1609_4 	SlotsBackoff 	0
scalar MyScenario.node[14].nic.mac1609_4 	NumInternalContention 	0
scalar MyScenario.node[14].nic.mac1609_4 	totalBusyTime 	0
scalar MyScenario.node[14].veinsmobility 	startTime 	1
scalar MyScenario.node[14].veinsmobility 	totalTime 	26
scalar MyScenario.node[14].veinsmobility 	stopTime 	28
scalar MyScenario.node[14].veinsmobility 	minSpeed 	1.600758242025
scalar MyScenario.node[14].veinsmobility 	maxSpeed 	13.82833342962
scalar MyScenario.node[14].veinsmobility 	totalDistance 	276.57836531307
scalar MyScenario.node[14].veinsmobility 	totalCO2Emission 	102.87947466125
scalar MyScenario.node[64].appl 	generatedWSMs 	1
scalar MyScenario.node[64].appl 	receivedWSMs 	6
scalar MyScenario.node[64].appl 	generatedBSMs 	0
scalar MyScenario.node[64].appl 	receivedBSMs 	0
scalar MyScenario.node[64].appl 	generatedWSAs 	0
scalar MyScenario.node[64].appl 	receivedWSAs 	0
scalar MyScenario.node[64].nic.phy80211p 	busyTime 	8.2857142857143e-05
scalar MyScenario.node[64].nic.mac1609_4 	ReceivedUnicastPackets 	0
scalar MyScenario.node[64].nic.mac1609_4 	ReceivedBroadcasts 	6
scalar MyScenario.node[64].nic.mac1609_4 	SentPackets 	1
scalar MyScenario.node[64].nic.mac1609_4 	SNIRLostPackets 	4
scalar MyScenario.node[64].nic.mac1609_4 	RXTXLostPackets 	7
scalar MyScenario.node[64].nic.mac1609_4 	TotalLostPackets 	11
scalar MyScenario.node[64].nic.mac1609_4 	DroppedPacketsInMac 	0
scalar MyScenario.node[64].nic.mac1609_4 	TooLittleTime 	0
scalar MyScenario.node[64].nic.mac1609_4 	TimesIntoBackoff 	1
scalar MyScenario.node[64].nic.mac1609_4 	SlotsBackoff 	2
scalar MyScenario.node[64].nic.mac1609_4 	NumInternalContention 	0
scalar MyScenario.node[64].nic.mac1609_4 	totalBusyTime 	0.001857
scalar MyScenario.node[64].veinsmobility 	startTime 	1
scalar MyScenario.node[64].veinsmobility 	totalTime 	27
scalar MyScenario.node[64].veinsmobility 	stopTime 	29
scalar MyScenario.node[64].veinsmobility 	minSpeed 	2.0548161260318
scalar MyScenario.node[64].veinsmobility 	maxSpeed 	13.590435839305
scalar MyScenario.node[64].veinsmobility 	totalDistance 	276.6404711568
scalar MyScenario.node[64].veinsmobility 	totalCO2Emission 	94.382649850302
scalar MyScenario.node[63].appl 	generatedWSMs 	0
scalar MyScenario.node[63].appl 	receivedWSMs 	0
scalar MyScenario.node[63].appl 	generatedBSMs 	0
scalar MyScenario.node[63].appl 	receivedBSMs 	0
scalar MyScenario.node[63].appl 	generatedWSAs 	0
scalar MyScenario.node[63].appl 	receivedWSAs 	0
scalar MyScenario.node[63].nic.phy80211p 	busyTime 	4.4903225806452e-05
scalar MyScenario.node[63].nic.mac1609_4 	ReceivedUnicastPackets 	0
scalar MyScenario.node[63].nic.mac1609_4 	ReceivedBroadcasts 	0
scalar MyScenario.node[63].nic.mac1609_4 	SentPackets 	0
scalar MyScenario.node[63].nic.mac1609_4 	SNIRLostPackets 	6
scalar MyScenario.node[63].nic.mac1609_4 	RXTXLostPackets 	0
scalar MyScenario.node[63].nic.mac1609_4 	TotalLostPackets 	6
scalar MyScenario.node[63].nic.mac1609_4 	DroppedPacketsInMac 	0
scalar MyScenario.node[63].nic.mac1609_4 	TooLittleTime 	0
scalar MyScenario.node[63].nic.mac1609_4 	TimesIntoBackoff 	0
scalar MyScenario.node[63].nic.mac1609_4 	SlotsBackoff 	0
scalar MyScenario.node[63].nic.mac1609_4 	NumInternalContention 	0
scalar MyScenario.node[63].nic.mac1609_4 	totalBusyTime 	0.000696
scalar MyScenario.node[63].veinsmobility 	startTime 	1
scalar MyScenario.node[63].veinsmobility 	totalTime 	30
scalar MyScenario.node[63].veinsmobility 	stopTime 	32
scalar MyScenario.node[63].veinsmobility 	minSpeed 	0.11948411352721
scalar MyScenario.node[63].veinsmobility 	maxSpeed 	13.870364851458
scalar MyScenario.node[63].veinsmobility 	totalDistance 	279.40797228044
scalar MyScenario.node[63].veinsmobility 	totalCO2Emission 	97.057725342085
scalar MyScenario.node[25].appl 	generatedWSMs 	0
scalar MyScenario.node[25].appl 	receivedWSMs 	0
scalar MyScenario.node[25].appl 	generatedBSMs 	0
scalar MyScenario.node[25].appl 	receivedBSMs 	0
scalar MyScenario.node[25].appl 	generatedWSAs 	0
scalar MyScenario.node[25].appl 	receivedWSAs 	0
scalar MyScenario.node[25].nic.phy80211p 	busyTime 	0
scalar MyScenario.node[25].nic.mac1609_4 	ReceivedUnicastPackets 	0
scalar MyScenario.node[25].nic.mac1609_4 	ReceivedBroadcasts 	0
scalar MyScenario.node[25].nic.mac1609_4 	SentPackets 	0
scalar MyScenario.node[25].nic.mac1609_4 	SNIRLostPackets 	0
scalar MyScenario.node[25].nic.mac1609_4 	RXTXLostPackets 	0
scalar MyScenario.node[25].nic.mac1609_4 	TotalLostPackets 	0
scalar MyScenario.node[25].nic.mac1609_4 	DroppedPacketsInMac 	0
scalar MyScenario.node[25].nic.mac1609_4 	TooLittleTime 	0
scalar MyScenario.node[25].nic.mac1609_4 	TimesIntoBackoff 	0
scalar MyScenario.node[25].nic.mac1609_4 	SlotsBackoff 	0
scalar MyScenario.node[25].nic.mac1609_4 	NumInternalContention 	0
scalar MyScenario.node[25].nic.mac1609_4 	totalBusyTime 	0
scalar MyScenario.node[25].veinsmobility 	startTime 	1
scalar MyScenario.node[25].veinsmobility 	totalTime 	32
scalar MyScenario.node[25].veinsmobility 	stopTime 	34
scalar MyScenario.node[25].veinsmobility 	minSpeed 	2.2405308852671
scalar MyScenario.node[25].veinsmobility 	maxSpeed 	13.828119141073
scalar MyScenario.node[25].veinsmobility 	totalDistance 	360.55359061011
scalar MyScenario.node[25].veinsmobility 	totalCO2Emission 	106.12896577862
scalar MyScenario.node[49].appl 	generatedWSMs 	1
scalar MyScenario.node[49].appl 	receivedWSMs 	2
scalar MyScenario.node[49].appl 	generatedBSMs 	0
scalar MyScenario.node[49].appl 	receivedBSMs 	0
scalar MyScenario.node[49].appl 	generatedWSAs 	0
scalar MyScenario.node[49].appl 	receivedWSAs 	0
scalar MyScenario.node[49].nic.phy80211p 	busyTime 	4.2181818181818e-05
scalar MyScenario.node[49].nic.mac1609_4 	ReceivedUnicastPackets 	0
scalar MyScenario.node[49].nic.mac1609_4 	ReceivedBroadcasts 	2
scalar MyScenario.node[49].nic.mac1609_4 	SentPackets 	1
scalar MyScenario.node[49].nic.mac1609_4 	SNIRLostPackets 	4
scalar MyScenario.node[49].nic.mac1609_4 	RXTXLostPackets 	5
scalar MyScenario.node[49].nic.mac1609_4 	TotalLostPackets 	9
scalar MyScenario.node[49].nic.mac1609_4 	DroppedPacketsInMac 	0
scalar MyScenario.node[49].nic.mac1609_4 	TooLittleTime 	0
scalar MyScenario.node[49].nic.mac1609_4 	TimesIntoBackoff 	1
scalar MyScenario.node[49].nic.mac1609_4 	SlotsBackoff 	1
scalar MyScenario.node[49].nic.mac1609_4 	NumInternalContention 	0
scalar MyScenario.node[49].nic.mac1609_4 	totalBusyTime 	0.000929
scalar MyScenario.node[49].veinsmobility 	startTime 	1
scalar MyScenario.node[49].veinsmobility 	totalTime 	32
scalar MyScenario.node[49].veinsmobility 	stopTime 	34
scalar MyScenario.node[49].veinsmobility 	minSpeed 	2.4268797221361
scalar MyScenario.node[49].veinsmobility 	maxSpeed 	13.857488071197
scalar MyScenario.node[49].veinsmobility 	totalDistance 	367.75154963358
scalar MyScenario.node[49].veinsmobility 	totalCO2Emission 	104.71776800974
scalar MyScenario.node[69].appl 	generatedWSMs 	1
scalar MyScenario.node[69].appl 	receivedWSMs 	1
scalar MyScenario.node[69].appl 	generatedBSMs 	0
scalar MyScenario.node[69].appl 	receivedBSMs 	0
scalar MyScenario.node[69].appl 	generatedWSAs 	0
scalar MyScenario.node[69].appl 	receivedWSAs 	0
scalar MyScenario.node[69].nic.phy80211p 	busyTime 	2.7294117647059e-05
scalar MyScenario.node[69].nic.mac1609_4 	ReceivedUnicastPackets 	0
scalar MyScenario.node[69].nic.mac1609_4 	ReceivedBroadcasts 	1
scalar MyScenario.node[69].nic.mac1609_4 	SentPackets 	1
scalar MyScenario.node[69].nic.mac1609_4 	SNIRLostPackets 	3
scalar MyScenario.node[69].nic.mac1609_4 	RXTXLostPackets 	4
scalar MyScenario.node[69].nic.mac1609_4 	TotalLostPackets 	7
scalar MyScenario.node[69].nic.mac1609_4 	DroppedPacketsInMac 	0
scalar MyScenario.node[69].nic.mac1609_4 	TooLittleTime 	0
scalar MyScenario.node[69].nic.mac1609_4 	TimesIntoBackoff 	1
scalar MyScenario.node[69].nic.mac1609_4 	SlotsBackoff 	2
scalar MyScenario.node[69].nic.mac1609_4 	NumInternalContention 	0
scalar MyScenario.node[69].nic.mac1609_4 	totalBusyTime 	0.000929
scalar MyScenario.node[69].veinsmobility 	startTime 	1
scalar MyScenario.node[69].veinsmobility 	totalTime 	33
scalar MyScenario.node[69].veinsmobility 	stopTime 	35
scalar MyScenario.node[69].veinsmobility 	minSpeed 	2.2586410922231
scalar MyScenario.node[69].veinsmobility 	maxSpeed 	13.83789482112
scalar MyScenario.node[69].veinsmobility 	totalDistance 	375.26782140227
scalar MyScenario.node[69].veinsmobility 	totalCO2Emission 	103.9843154022
scalar MyScenario.node[26].appl 	generatedWSMs 	0
scalar MyScenario.node[26].appl 	receivedWSMs 	0
scalar MyScenario.node[26].appl 	generatedBSMs 	0
scalar MyScenario.node[26].appl 	receivedBSMs 	0
scalar MyScenario.node[26].appl 	generatedWSAs 	0
scalar MyScenario.node[26].appl 	receivedWSAs 	0
scalar MyScenario.node[26].nic.phy80211p 	busyTime 	2.0470588235294e-05
scalar MyScenario.node[26].nic.mac1609_4 	ReceivedUnicastPackets 	0
scalar MyScenario.node[26].nic.mac1609_4 	ReceivedBroadcasts 	0
scalar MyScenario.node[26].nic.mac1609_4 	SentPackets 	0
scalar MyScenario.node[26].nic.mac1609_4 	SNIRLostPackets 	3
scalar MyScenario.node[26].nic.mac1609_4 	RXTXLostPackets 	0
scalar MyScenario.node[26].nic.mac1609_4 	TotalLostPackets 	3
scalar MyScenario.node[26].nic.mac1609_4 	DroppedPacketsInMac 	0
scalar MyScenario.node[26].nic.mac1609_4 	TooLittleTime 	0
scalar MyScenario.node[26].nic.mac1609_4 	TimesIntoBackoff 	0
scalar MyScenario.node[26].nic.mac1609_4 	SlotsBackoff 	0
scalar MyScenario.node[26].nic.mac1609_4 	NumInternalContention 	0
scalar MyScenario.node[26].nic.mac1609_4 	totalBusyTime 	0.000464
scalar MyScenario.node[26].veinsmobility 	startTime 	1
scalar MyScenario.node[26].veinsmobility 	totalTime 	33
scalar MyScenario.node[26].veinsmobility 	stopTime 	35
scalar MyScenario.node[26].veinsmobility 	minSpeed 	1.9919212833047
scalar MyScenario.node[26].veinsmobility 	maxSpeed 	13.723368283408
scalar MyScenario.node[26].veinsmobility 	totalDistance 	367.63584588624
scalar MyScenario.node[26].veinsmobility 	totalCO2Emission 	115.74890216122
scalar MyScenario.node[95].appl 	generatedWSMs 	0
scalar MyScenario.node[95].appl 	receivedWSMs 	0
scalar MyScenario.node[95].appl 	generatedBSMs 	0
scalar MyScenario.node[95].appl 	receivedBSMs 	0
scalar MyScenario.node[95].appl 	generatedWSAs 	0
scalar MyScenario.node[95].appl 	receivedWSAs 	0
scalar MyScenario.node[95].nic.phy80211p 	busyTime 	0
scalar MyScenario.node[95].nic.mac1609_4 	ReceivedUnicastPackets 	0
scalar MyScenario.node[95].nic.mac1609_4 	ReceivedBroadcasts 	0
scalar MyScenario.node[95].nic.mac1609_4 	SentPackets 	0
scalar MyScenario.node[95].nic.mac1609_4 	SNIRLostPackets 	0
scalar MyScenario.node[95].nic.mac1609_4 	RXTXLostPackets 	0
scalar MyScenario.node[95].nic.mac1609_4 	TotalLostPackets 	0
scalar MyScenario.node[95].nic.mac1609_4 	DroppedPacketsInMac 	0
scalar MyScenario.node[95].nic.mac1609_4 	TooLittleTime 	0
scalar MyScenario.node[95].nic.mac1609_4 	TimesIntoBackoff 	0
scalar MyScenario.node[95].nic.mac1609_4 	SlotsBackoff 	0
scalar MyScenario.node[95].nic.mac1609_4 	NumInternalContention 	0
scalar MyScenario.node[95].nic.mac1609_4 	totalBusyTime 	0
scalar MyScenario.node[95].veinsmobility 	startTime 	4
scalar MyScenario.node[95].veinsmobility 	totalTime 	30
scalar MyScenario.node[95].veinsmobility 	stopTime 	35
scalar MyScenario.node[95].veinsmobility 	minSpeed 	2.5072584104026
scalar MyScenario.node[95].veinsmobility 	maxSpeed 	13.867573131504
scalar MyScenario.node[95].veinsmobility 	totalDistance 	362.58757629572
scalar MyScenario.node[95].veinsmobility 	totalCO2Emission 	86.554957005288
scalar MyScenario.node[22].appl 	generatedWSMs 	0
scalar MyScenario.node[22].appl 	receivedWSMs 	0
scalar MyScenario.node[22].appl 	generatedBSMs 	0
scalar MyScenario.node[22].appl 	receivedBSMs 	0
scalar MyScenario.node[22].appl 	generatedWSAs 	0
scalar MyScenario.node[22].appl 	receivedWSAs 	0
scalar MyScenario.node[22].nic.phy80211p 	busyTime 	2.6514285714286e-05
scalar MyScenario.node[22].nic.mac1609_4 	ReceivedUnicastPackets 	0
scalar MyScenario.node[22].nic.mac1609_4 	ReceivedBroadcasts 	0
scalar MyScenario.node[22].nic.mac1609_4 	SentPackets 	0
scalar MyScenario.node[22].nic.mac1609_4 	SNIRLostPackets 	4
scalar MyScenario.node[22].nic.mac1609_4 	RXTXLostPackets 	0
scalar MyScenario.node[22].nic.mac1609_4 	TotalLostPackets 	4
scalar MyScenario.node[22].nic.mac1609_4 	DroppedPacketsInMac 	0
scalar MyScenario.node[22].nic.mac1609_4 	TooLittleTime 	0
scalar MyScenario.node[22].nic.mac1609_4 	TimesIntoBackoff 	0
scalar MyScenario.node[22].nic.mac1609_4 	SlotsBackoff 	0
scalar MyScenario.node[22].nic.mac1609_4 	NumInternalContention 	0
scalar MyScenario.node[22].nic.mac1609_4 	totalBusyTime 	0.000232
scalar MyScenario.node[22].veinsmobility 	startTime 	1
scalar MyScenario.node[22].veinsmobility 	totalTime 	34
scalar MyScenario.node[22].veinsmobility 	stopTime 	36
scalar MyScenario.node[22].veinsmobility 	minSpeed 	2.0195423439145
scalar MyScenario.node[22].veinsmobility 	maxSpeed 	13.889912772202
scalar MyScenario.node[22].veinsmobility 	totalDistance 	367.85646669498
scalar MyScenario.node[22].veinsmobility 	totalCO2Emission 	121.87515217719
scalar MyScenario.node[35].appl 	generatedWSMs 	1
scalar MyScenario.node[35].appl 	receivedWSMs 	3
scalar MyScenario.node[35].appl 	generatedBSMs 	0
scalar MyScenario.node[35].appl 	receivedBSMs 	0
scalar MyScenario.node[35].appl 	generatedWSAs 	0
scalar MyScenario.node[35].appl 	receivedWSAs 	0
scalar MyScenario.node[35].nic.phy80211p 	busyTime 	0.00010032432432432
scalar MyScenario.node[35].nic.mac1609_4 	ReceivedUnicastPackets 	0
scalar MyScenario.node[35].nic.mac1609_4 	ReceivedBroadcasts 	3
scalar MyScenario.node[35].nic.mac1609_4 	SentPackets 	1
scalar MyScenario.node[35].nic.mac1609_4 	SNIRLostPackets 	13
scalar MyScenario.node[35].nic.mac1609_4 	RXTXLostPackets 	5
scalar MyScenario.node[35].nic.mac1609_4 	TotalLostPackets 	18
scalar MyScenario.node[35].nic.mac1609_4 	DroppedPacketsInMac 	0
scalar MyScenario.node[35].nic.mac1609_4 	TooLittleTime 	0
scalar MyScenario.node[35].nic.mac1609_4 	TimesIntoBackoff 	1
scalar MyScenario.node[35].nic.mac1609_4 	SlotsBackoff 	0
scalar MyScenario.node[35].nic.mac1609_4 	NumInternalContention 	0
scalar MyScenario.node[35].nic.mac1609_4 	totalBusyTime 	0.001393
scalar MyScenario.node[35].veinsmobility 	startTime 	1
scalar MyScenario.node[35].veinsmobility 	totalTime 	36
scalar MyScenario.node[35].veinsmobility 	stopTime 	38
scalar MyScenario.node[35].veinsmobility 	minSpeed 	1.360507858293
scalar MyScenario.node[35].veinsmobility 	maxSpeed 	13.838882887363
scalar MyScenario.node[35].veinsmobility 	totalDistance 	383.12502571754
scalar MyScenario.node[35].veinsmobility 	totalCO2Emission 	116.28109702681
scalar MyScenario.node[27].appl 	generatedWSMs 	0
scalar MyScenario.node[27].appl 	receivedWSMs 	0
scalar MyScenario.node[27].appl 	generatedBSMs 	0
scalar MyScenario.node[27].appl 	receivedBSMs 	0
scalar MyScenario.node[27].appl 	generatedWSAs 	0
scalar MyScenario.node[27].appl 	receivedWSAs 	0
scalar MyScenario.node[27].nic.phy80211p 	busyTime 	0
scalar MyScenario.node[27].nic.mac1609_4 	ReceivedUnicastPackets 	0
scalar MyScenario.node[27].nic.mac1609_4 	ReceivedBroadcasts 	0
scalar MyScenario.node[27].nic.mac1609_4 	SentPackets 	0
scalar MyScenario.node[27].nic.mac1609_4 	SNIRLostPackets 	0
scalar MyScenario.node[27].nic.mac1609_4 	RXTXLostPackets 	0
scalar MyScenario.node[27].nic.mac1609_4 	TotalLostPackets 	0
scalar MyScenario.node[27].nic.mac1609_4 	DroppedPacketsInMac 	0
scalar MyScenario.node[27].nic.mac1609_4 	TooLittleTime 	0
scalar MyScenario.node[27].nic.mac1609_4 	TimesIntoBackoff 	0
scalar MyScenario.node[27].nic.mac1609_4 	SlotsBackoff 	0
scalar MyScenario.node[27].nic.mac1609_4 	NumInternalContention 	0
scalar MyScenario.node[27].nic.mac1609_4 	totalBusyTime 	0
scalar MyScenario.node[27].veinsmobility 	startTime 	1
scalar MyScenario.node[27].veinsmobility 	totalTime 	40
scalar MyScenario.node[27].veinsmobility 	stopTime 	42
scalar MyScenario.node[27].veinsmobility 	minSpeed 	2.4144695319235
scalar MyScenario.node[27].veinsmobility 	maxSpeed 	13.747254925291
scalar MyScenario.node[27].veinsmobility 	totalDistance 	475.55135785931
scalar MyScenario.node[27].veinsmobility 	totalCO2Emission 	117.55115169921
scalar MyScenario.node[68].appl 	generatedWSMs 	1
scalar MyScenario.node[68].appl 	receivedWSMs 	11
scalar MyScenario.node[68].appl 	generatedBSMs 	0
scalar MyScenario.node[68].appl 	receivedBSMs 	0
scalar MyScenario.node[68].appl 	generatedWSAs 	0
scalar MyScenario.node[68].appl 	receivedWSAs 	0
scalar MyScenario.node[68].nic.phy80211p 	busyTime 	7.7333333333333e-05
scalar MyScenario.node[68].nic.mac1609_4 	ReceivedUnicastPackets 	0
scalar MyScenario.node[68].nic.mac1609_4 	ReceivedBroadcasts 	11
scalar MyScenario.node[68].nic.mac1609_4 	SentPackets 	1
scalar MyScenario.node[68].nic.mac1609_4 	SNIRLostPackets 	3
scalar MyScenario.node[68].nic.mac1609_4 	RXTXLostPackets 	0
scalar MyScenario.node[68].nic.mac1609_4 	TotalLostPackets 	3
scalar MyScenario.node[68].nic.mac1609_4 	DroppedPacketsInMac 	0
scalar MyScenario.node[68].nic.mac1609_4 	TooLittleTime 	0
scalar MyScenario.node[68].nic.mac1609_4 	TimesIntoBackoff 	1
scalar MyScenario.node[68].nic.mac1609_4 	SlotsBackoff 	3
scalar MyScenario.node[68].nic.mac1609_4 	NumInternalContention 	0
scalar MyScenario.node[68].nic.mac1609_4 	totalBusyTime 	0.003017
scalar MyScenario.node[68].veinsmobility 	startTime 	1
scalar MyScenario.node[68].veinsmobility 	totalTime 	41
scalar MyScenario.node[68].veinsmobility 	stopTime 	43
scalar MyScenario.node[68].veinsmobility 	minSpeed 	1.9485433956608
scalar MyScenario.node[68].veinsmobility 	maxSpeed 	13.879937861627
scalar MyScenario.node[68].veinsmobility 	totalDistance 	472.33185758848
scalar MyScenario.node[68].veinsmobility 	totalCO2Emission 	118.16772803696
scalar MyScenario.node[51].appl 	generatedWSMs 	0
scalar MyScenario.node[51].appl 	receivedWSMs 	0
scalar MyScenario.node[51].appl 	generatedBSMs 	0
scalar MyScenario.node[51].appl 	receivedBSMs 	0
scalar MyScenario.node[51].appl 	generatedWSAs 	0
scalar MyScenario.node[51].appl 	receivedWSAs 	0
scalar MyScenario.node[51].nic.phy80211p 	busyTime 	0
scalar MyScenario.node[51].nic.mac1609_4 	ReceivedUnicastPackets 	0
scalar MyScenario.node[51].nic.mac1609_4 	ReceivedBroadcasts 	0
scalar MyScenario.node[51].nic.mac1609_4 	SentPackets 	0
scalar MyScenario.node[51].nic.mac1609_4 	SNIRLostPackets 	0
scalar MyScenario.node[51].nic.mac1609_4 	RXTXLostPackets 	0
scalar MyScenario.node[51].nic.mac1609_4 	TotalLostPackets 	0
scalar MyScenario.node[51].nic.mac1609_4 	DroppedPacketsInMac 	0
scalar MyScenario.node[51].nic.mac1609_4 	TooLittleTime 	0
scalar MyScenario.node[51].nic.mac1609_4 	TimesIntoBackoff 	0
scalar MyScenario.node[51].nic.mac1609_4 	SlotsBackoff 	0
scalar MyScenario.node[51].nic.mac1609_4 	NumInternalContention 	0
scalar MyScenario.node[51].nic.mac1609_4 	totalBusyTime 	0
scalar MyScenario.node[51].veinsmobility 	startTime 	1
scalar MyScenario.node[51].veinsmobility 	totalTime 	41
scalar MyScenario.node[51].veinsmobility 	stopTime 	43
scalar MyScenario.node[51].veinsmobility 	minSpeed 	1.7453806929523
scalar MyScenario.node[51].veinsmobility 	maxSpeed 	13.796071087895
scalar MyScenario.node[51].veinsmobility 	totalDistance 	476.22795762064
scalar MyScenario.node[51].veinsmobility 	totalCO2Emission 	121.97027139697
scalar MyScenario.node[56].appl 	generatedWSMs 	0
scalar MyScenario.node[56].appl 	receivedWSMs 	0
scalar MyScenario.node[56].appl 	generatedBSMs 	0
scalar MyScenario.node[56].appl 	receivedBSMs 	0
scalar MyScenario.node[56].appl 	generatedWSAs 	0
scalar MyScenario.node[56].appl 	receivedWSAs 	0
scalar MyScenario.node[56].nic.phy80211p 	busyTime 	1.6571428571429e-05
scalar MyScenario.node[56].nic.mac1609_4 	ReceivedUnicastPackets 	0
scalar MyScenario.node[56].nic.mac1609_4 	ReceivedBroadcasts 	0
scalar MyScenario.node[56].nic.mac1609_4 	SentPackets 	0
scalar MyScenario.node[56].nic.mac1609_4 	SNIRLostPackets 	3
scalar MyScenario.node[56].nic.mac1609_4 	RXTXLostPackets 	0
scalar MyScenario.node[56].nic.mac1609_4 	TotalLostPackets 	3
scalar MyScenario.node[56].nic.mac1609_4 	DroppedPacketsInMac 	0
scalar MyScenario.node[56].nic.mac1609_4 	TooLittleTime 	0
scalar MyScenario.node[56].nic.mac1609_4 	TimesIntoBackoff 	0
scalar MyScenario.node[56].nic.mac1609_4 	SlotsBackoff 	0
scalar MyScenario.node[56].nic.mac1609_4 	NumInternalContention 	0
scalar MyScenario.node[56].nic.mac1609_4 	totalBusyTime 	0.000232
scalar MyScenario.node[56].veinsmobility 	startTime 	1
scalar MyScenario.node[56].veinsmobility 	totalTime 	41
scalar MyScenario.node[56].veinsmobility 	stopTime 	43
scalar MyScenario.node[56].veinsmobility 	minSpeed 	0.0014183161721919
scalar MyScenario.node[56].veinsmobility 	maxSpeed 	13.798954551318
scalar MyScenario.node[56].veinsmobility 	totalDistance 	376.01622894567
scalar MyScenario.node[56].veinsmobility 	totalCO2Emission 	136.02319682756
scalar MyScenario.node[67].appl 	generatedWSMs 	0
scalar MyScenario.node[67].appl 	receivedWSMs 	0
scalar MyScenario.node[67].appl 	generatedBSMs 	0
scalar MyScenario.node[67].appl 	receivedBSMs 	0
scalar MyScenario.node[67].appl 	generatedWSAs 	0
scalar MyScenario.node[67].appl 	receivedWSAs 	0
scalar MyScenario.node[67].nic.phy80211p 	busyTime 	5.3953488372093e-06
scalar MyScenario.node[67].nic.mac1609_4 	ReceivedUnicastPackets 	0
scalar MyScenario.node[67].nic.mac1609_4 	ReceivedBroadcasts 	0
scalar MyScenario.node[67].nic.mac1609_4 	SentPackets 	0
scalar MyScenario.node[67].nic.mac1609_4 	SNIRLostPackets 	1
scalar MyScenario.node[67].nic.mac1609_4 	RXTXLostPackets 	0
scalar MyScenario.node[67].nic.mac1609_4 	TotalLostPackets 	1
scalar MyScenario.node[67].nic.mac1609_4 	DroppedPacketsInMac 	0
scalar MyScenario.node[67].nic.mac1609_4 	TooLittleTime 	0
scalar MyScenario.node[67].nic.mac1609_4 	TimesIntoBackoff 	0
scalar MyScenario.node[67].nic.mac1609_4 	SlotsBackoff 	0
scalar MyScenario.node[67].nic.mac1609_4 	NumInternalContention 	0
scalar MyScenario.node[67].nic.mac1609_4 	totalBusyTime 	0.000232
scalar MyScenario.node[67].veinsmobility 	startTime 	1
scalar MyScenario.node[67].veinsmobility 	totalTime 	42
scalar MyScenario.node[67].veinsmobility 	stopTime 	44
scalar MyScenario.node[67].veinsmobility 	minSpeed 	1.4181331205182
scalar MyScenario.node[67].veinsmobility 	maxSpeed 	13.87453707417
scalar MyScenario.node[67].veinsmobility 	totalDistance 	465.94011822553
scalar MyScenario.node[67].veinsmobility 	totalCO2Emission 	147.76475575702
scalar MyScenario.node[78].appl 	generatedWSMs 	0
scalar MyScenario.node[78].appl 	receivedWSMs 	0
scalar MyScenario.node[78].appl 	generatedBSMs 	0
scalar MyScenario.node[78].appl 	receivedBSMs 	0
scalar MyScenario.node[78].appl 	generatedWSAs 	0
scalar MyScenario.node[78].appl 	receivedWSAs 	0
scalar MyScenario.node[78].nic.phy80211p 	busyTime 	0
scalar MyScenario.node[78].nic.mac1609_4 	ReceivedUnicastPackets 	0
scalar MyScenario.node[78].nic.mac1609_4 	ReceivedBroadcasts 	0
scalar MyScenario.node[78].nic.mac1609_4 	SentPackets 	0
scalar MyScenario.node[78].nic.mac1609_4 	SNIRLostPackets 	0
scalar MyScenario.node[78].nic.mac1609_4 	RXTXLostPackets 	0
scalar MyScenario.node[78].nic.mac1609_4 	TotalLostPackets 	0
scalar MyScenario.node[78].nic.mac1609_4 	DroppedPacketsInMac 	0
scalar MyScenario.node[78].nic.mac1609_4 	TooLittleTime 	0
scalar MyScenario.node[78].nic.mac1609_4 	TimesIntoBackoff 	0
scalar MyScenario.node[78].nic.mac1609_4 	SlotsBackoff 	0
scalar MyScenario.node[78].nic.mac1609_4 	NumInternalContention 	0
scalar MyScenario.node[78].nic.mac1609_4 	totalBusyTime 	0
scalar MyScenario.node[78].veinsmobility 	startTime 	1
scalar MyScenario.node[78].veinsmobility 	totalTime 	42
scalar MyScenario.node[78].veinsmobility 	stopTime 	44
scalar MyScenario.node[78].veinsmobility 	minSpeed 	1.3547121533426
scalar MyScenario.node[78].veinsmobility 	maxSpeed 	13.894461504114
scalar MyScenario.node[78].veinsmobility 	totalDistance 	476.53259951667
scalar MyScenario.node[78].veinsmobility 	totalCO2Emission 	138.79471086325
scalar MyScenario.node[15].appl 	generatedWSMs 	0
scalar MyScenario.node[15].appl 	receivedWSMs 	0
scalar MyScenario.node[15].appl 	generatedBSMs 	0
scalar MyScenario.node[15].appl 	receivedBSMs 	0
scalar MyScenario.node[15].appl 	generatedWSAs 	0
scalar MyScenario.node[15].appl 	receivedWSAs 	0
scalar MyScenario.node[15].nic.phy80211p 	busyTime 	4.1244444444444e-05
scalar MyScenario.node[15].nic.mac1609_4 	ReceivedUnicastPackets 	0
scalar MyScenario.node[15].nic.mac1609_4 	ReceivedBroadcasts 	0
scalar MyScenario.node[15].nic.mac1609_4 	SentPackets 	0
scalar MyScenario.node[15].nic.mac1609_4 	SNIRLostPackets 	8
scalar MyScenario.node[15].nic.mac1609_4 	RXTXLostPackets 	0
scalar MyScenario.node[15].nic.mac1609_4 	TotalLostPackets 	8
scalar MyScenario.node[15].nic.mac1609_4 	DroppedPacketsInMac 	0
scalar MyScenario.node[15].nic.mac1609_4 	TooLittleTime 	0
scalar MyScenario.node[15].nic.mac1609_4 	TimesIntoBackoff 	0
scalar MyScenario.node[15].nic.mac1609_4 	SlotsBackoff 	0
scalar MyScenario.node[15].nic.mac1609_4 	NumInternalContention 	0
scalar MyScenario.node[15].nic.mac1609_4 	totalBusyTime 	0.000928
scalar MyScenario.node[15].veinsmobility 	startTime 	1
scalar MyScenario.node[15].veinsmobility 	totalTime 	44
scalar MyScenario.node[15].veinsmobility 	stopTime 	46
scalar MyScenario.node[15].veinsmobility 	minSpeed 	1.7233704460086
scalar MyScenario.node[15].veinsmobility 	maxSpeed 	13.764786317293
scalar MyScenario.node[15].veinsmobility 	totalDistance 	471.14838908518
scalar MyScenario.node[15].veinsmobility 	totalCO2Emission 	155.98367782782
scalar MyScenario.node[45].appl 	generatedWSMs 	0
scalar MyScenario.node[45].appl 	receivedWSMs 	0
scalar MyScenario.node[45].appl 	generatedBSMs 	0
scalar MyScenario.node[45].appl 	receivedBSMs 	0
scalar MyScenario.node[45].appl 	generatedWSAs 	0
scalar MyScenario.node[45].appl 	receivedWSAs 	0
scalar MyScenario.node[45].nic.phy80211p 	busyTime 	2.468085106383e-05
scalar MyScenario.node[45].nic.mac1609_4 	ReceivedUnicastPackets 	0
scalar MyScenario.node[45].nic.mac1609_4 	ReceivedBroadcasts 	0
scalar MyScenario.node[45].nic.mac1609_4 	SentPackets 	0
scalar MyScenario.node[45].nic.mac1609_4 	SNIRLostPackets 	5
scalar MyScenario.node[45].nic.mac1609_4 	RXTXLostPackets 	0
scalar MyScenario.node[45].nic.mac1609_4 	TotalLostPackets 	5
scalar MyScenario.node[45].nic.mac1609_4 	DroppedPacketsInMac 	0
scalar MyScenario.node[45].nic.mac1609_4 	TooLittleTime 	0
scalar MyScenario.node[45].nic.mac1609_4 	TimesIntoBackoff 	0
scalar MyScenario.node[45].nic.mac1609_4 	SlotsBackoff 	0
scalar MyScenario.node[45].nic.mac1609_4 	NumInternalContention 	0
scalar MyScenario.node[45].nic.mac1609_4 	totalBusyTime 	0.000232
scalar MyScenario.node[45].veinsmobility 	startTime 	1
scalar MyScenario.node[45].veinsmobility 	totalTime 	46
scalar MyScenario.node[45].veinsmobility 	stopTime 	48
scalar MyScenario.node[45].veinsmobility 	minSpeed 	0.65128130385195
scalar MyScenario.node[45].veinsmobility 	maxSpeed 	13.822059540986
scalar MyScenario.node[45].veinsmobility 	totalDistance 	470.36373643971
scalar MyScenario.node[45].veinsmobility 	totalCO2Emission 	159.54135573126
scalar MyScenario.node[34].appl 	generatedWSMs 	1
scalar MyScenario.node[34].appl 	receivedWSMs 	8
scalar MyScenario.node[34].appl 	generatedBSMs 	0
scalar MyScenario.node[34].appl 	receivedBSMs 	0
scalar MyScenario.node[34].appl 	generatedWSAs 	0
scalar MyScenario.node[34].appl 	receivedWSAs 	0
scalar MyScenario.node[34].nic.phy80211p 	busyTime 	4.8333333333333e-05
scalar MyScenario.node[34].nic.mac1609_4 	ReceivedUnicastPackets 	0
scalar MyScenario.node[34].nic.mac1609_4 	ReceivedBroadcasts 	8
scalar MyScenario.node[34].nic.mac1609_4 	SentPackets 	1
scalar MyScenario.node[34].nic.mac1609_4 	SNIRLostPackets 	2
scalar MyScenario.node[34].nic.mac1609_4 	RXTXLostPackets 	4
scalar MyScenario.node[34].nic.mac1609_4 	TotalLostPackets 	6
scalar MyScenario.node[34].nic.mac1609_4 	DroppedPacketsInMac 	0
scalar MyScenario.node[34].nic.mac1609_4 	TooLittleTime 	0
scalar MyScenario.node[34].nic.mac1609_4 	TimesIntoBackoff 	1
scalar MyScenario.node[34].nic.mac1609_4 	SlotsBackoff 	3
scalar MyScenario.node[34].nic.mac1609_4 	NumInternalContention 	0
scalar MyScenario.node[34].nic.mac1609_4 	totalBusyTime 	0.002321191302
scalar MyScenario.node[34].veinsmobility 	startTime 	1
scalar MyScenario.node[34].veinsmobility 	totalTime 	47
scalar MyScenario.node[34].veinsmobility 	stopTime 	49
scalar MyScenario.node[34].veinsmobility 	minSpeed 	1.9139057714958
scalar MyScenario.node[34].veinsmobility 	maxSpeed 	13.897205449385
scalar MyScenario.node[34].veinsmobility 	totalDistance 	583.29511985509
scalar MyScenario.node[34].veinsmobility 	totalCO2Emission 	128.44601164757
scalar MyScenario.node[28].appl 	generatedWSMs 	0
scalar MyScenario.node[28].appl 	receivedWSMs 	0
scalar MyScenario.node[28].appl 	generatedBSMs 	0
scalar MyScenario.node[28].appl 	receivedBSMs 	0
scalar MyScenario.node[28].appl 	generatedWSAs 	0
scalar MyScenario.node[28].appl 	receivedWSAs 	0
scalar MyScenario.node[28].nic.phy80211p 	busyTime 	4.734693877551e-06
scalar MyScenario.node[28].nic.mac1609_4 	ReceivedUnicastPackets 	0
scalar MyScenario.node[28].nic.mac1609_4 	ReceivedBroadcasts 	0
scalar MyScenario.node[28].nic.mac1609_4 	SentPackets 	0
scalar MyScenario.node[28].nic.mac1609_4 	SNIRLostPackets 	1
scalar MyScenario.node[28].nic.mac1609_4 	RXTXLostPackets 	0
scalar MyScenario.node[28].nic.mac1609_4 	TotalLostPackets 	1
scalar MyScenario.node[28].nic.mac1609_4 	DroppedPacketsInMac 	0
scalar MyScenario.node[28].nic.mac1609_4 	TooLittleTime 	0
scalar MyScenario.node[28].nic.mac1609_4 	TimesIntoBackoff 	0
scalar MyScenario.node[28].nic.mac1609_4 	SlotsBackoff 	0
scalar MyScenario.node[28].nic.mac1609_4 	NumInternalContention 	0
scalar MyScenario.node[28].nic.mac1609_4 	totalBusyTime 	0.000232
scalar MyScenario.node[28].veinsmobility 	startTime 	1
scalar MyScenario.node[28].veinsmobility 	totalTime 	48
scalar MyScenario.node[28].veinsmobility 	stopTime 	50
scalar MyScenario.node[28].veinsmobility 	minSpeed 	0.2145812280138
scalar MyScenario.node[28].veinsmobility 	maxSpeed 	13.822363708338
scalar MyScenario.node[28].veinsmobility 	totalDistance 	477.68557488053
scalar MyScenario.node[28].veinsmobility 	totalCO2Emission 	156.74157598722
scalar MyScenario.node[89].appl 	generatedWSMs 	0
scalar MyScenario.node[89].appl 	receivedWSMs 	0
scalar MyScenario.node[89].appl 	generatedBSMs 	0
scalar MyScenario.node[89].appl 	receivedBSMs 	0
scalar MyScenario.node[89].appl 	generatedWSAs 	0
scalar MyScenario.node[89].appl 	receivedWSAs 	0
scalar MyScenario.node[89].nic.phy80211p 	busyTime 	3.7877551020408e-05
scalar MyScenario.node[89].nic.mac1609_4 	ReceivedUnicastPackets 	0
scalar MyScenario.node[89].nic.mac1609_4 	ReceivedBroadcasts 	0
scalar MyScenario.node[89].nic.mac1609_4 	SentPackets 	0
scalar MyScenario.node[89].nic.mac1609_4 	SNIRLostPackets 	8
scalar MyScenario.node[89].nic.mac1609_4 	RXTXLostPackets 	0
scalar MyScenario.node[89].nic.mac1609_4 	TotalLostPackets 	8
scalar MyScenario.node[89].nic.mac1609_4 	DroppedPacketsInMac 	0
scalar MyScenario.node[89].nic.mac1609_4 	TooLittleTime 	0
scalar MyScenario.node[89].nic.mac1609_4 	TimesIntoBackoff 	0
scalar MyScenario.node[89].nic.mac1609_4 	SlotsBackoff 	0
scalar MyScenario.node[89].nic.mac1609_4 	NumInternalContention 	0
scalar MyScenario.node[89].nic.mac1609_4 	totalBusyTime 	0.000464
scalar MyScenario.node[89].veinsmobility 	startTime 	1
scalar MyScenario.node[89].veinsmobility 	totalTime 	48
scalar MyScenario.node[89].veinsmobility 	stopTime 	50
scalar MyScenario.node[89].veinsmobility 	minSpeed 	1.9793784999521
scalar MyScenario.node[89].veinsmobility 	maxSpeed 	13.880285415868
scalar MyScenario.node[89].veinsmobility 	totalDistance 	576.63165195568
scalar MyScenario.node[89].veinsmobility 	totalCO2Emission 	142.10054271224
scalar MyScenario.node[75].appl 	generatedWSMs 	0
scalar MyScenario.node[75].appl 	receivedWSMs 	0
scalar MyScenario.node[75].appl 	generatedBSMs 	0
scalar MyScenario.node[75].appl 	receivedBSMs 	0
scalar MyScenario.node[75].appl 	generatedWSAs 	0
scalar MyScenario.node[75].appl 	receivedWSAs 	0
scalar MyScenario.node[75].nic.phy80211p 	busyTime 	3.248e-05
scalar MyScenario.node[75].nic.mac1609_4 	ReceivedUnicastPackets 	0
scalar MyScenario.node[75].nic.mac1609_4 	ReceivedBroadcasts 	0
scalar MyScenario.node[75].nic.mac1609_4 	SentPackets 	0
scalar MyScenario.node[75].nic.mac1609_4 	SNIRLostPackets 	7
scalar MyScenario.node[75].nic.mac1609_4 	RXTXLostPackets 	0
scalar MyScenario.node[75].nic.mac1609_4 	TotalLostPackets 	7
scalar MyScenario.node[75].nic.mac1609_4 	DroppedPacketsInMac 	0
scalar MyScenario.node[75].nic.mac1609_4 	TooLittleTime 	0
scalar MyScenario.node[75].nic.mac1609_4 	TimesIntoBackoff 	0
scalar MyScenario.node[75].nic.mac1609_4 	SlotsBackoff 	0
scalar MyScenario.node[75].nic.mac1609_4 	NumInternalContention 	0
scalar MyScenario.node[75].nic.mac1609_4 	totalBusyTime 	0.000464
scalar MyScenario.node[75].veinsmobility 	startTime 	1
scalar MyScenario.node[75].veinsmobility 	totalTime 	49
scalar MyScenario.node[75].veinsmobility 	stopTime 	51
scalar MyScenario.node[75].veinsmobility 	minSpeed 	1.4175284149358
scalar MyScenario.node[75].veinsmobility 	maxSpeed 	13.887762198062
scalar MyScenario.node[75].veinsmobility 	totalDistance 	551.3382379752
scalar MyScenario.node[75].veinsmobility 	totalCO2Emission 	164.09433006297
scalar MyScenario.node[87].appl 	generatedWSMs 	1
scalar MyScenario.node[87].appl 	receivedWSMs 	5
scalar MyScenario.node[87].appl 	generatedBSMs 	0
scalar MyScenario.node[87].appl 	receivedBSMs 	0
scalar MyScenario.node[87].appl 	generatedWSAs 	0
scalar MyScenario.node[87].appl 	receivedWSAs 	0
scalar MyScenario.node[87].nic.phy80211p 	busyTime 	5.104e-05
scalar MyScenario.node[87].nic.mac1609_4 	ReceivedUnicastPackets 	0
scalar MyScenario.node[87].nic.mac1609_4 	ReceivedBroadcasts 	5
scalar MyScenario.node[87].nic.mac1609_4 	SentPackets 	1
scalar MyScenario.node[87].nic.mac1609_4 	SNIRLostPackets 	6
scalar MyScenario.node[87].nic.mac1609_4 	RXTXLostPackets 	1
scalar MyScenario.node[87].nic.mac1609_4 	TotalLostPackets 	7
scalar MyScenario.node[87].nic.mac1609_4 	DroppedPacketsInMac 	0
scalar MyScenario.node[87].nic.mac1609_4 	TooLittleTime 	0
scalar MyScenario.node[87].nic.mac1609_4 	TimesIntoBackoff 	1
scalar MyScenario.node[87].nic.mac1609_4 	SlotsBackoff 	0
scalar MyScenario.node[87].nic.mac1609_4 	NumInternalContention 	0
scalar MyScenario.node[87].nic.mac1609_4 	totalBusyTime 	0.001857
scalar MyScenario.node[87].veinsmobility 	startTime 	1
scalar MyScenario.node[87].veinsmobility 	totalTime 	49
scalar MyScenario.node[87].veinsmobility 	stopTime 	51
scalar MyScenario.node[87].veinsmobility 	minSpeed 	1.5551392468857
scalar MyScenario.node[87].veinsmobility 	maxSpeed 	13.891487820307
scalar MyScenario.node[87].veinsmobility 	totalDistance 	562.32902788672
scalar MyScenario.node[87].veinsmobility 	totalCO2Emission 	161.08913397654
scalar MyScenario.node[4].appl 	generatedWSMs 	1
scalar MyScenario.node[4].appl 	receivedWSMs 	8
scalar MyScenario.node[4].appl 	generatedBSMs 	0
scalar MyScenario.node[4].appl 	receivedBSMs 	0
scalar MyScenario.node[4].appl 	generatedWSAs 	0
scalar MyScenario.node[4].appl 	receivedWSAs 	0
scalar MyScenario.node[4].nic.phy80211p 	busyTime 	4.0153846153846e-05
scalar MyScenario.node[4].nic.mac1609_4 	ReceivedUnicastPackets 	0
scalar MyScenario.node[4].nic.mac1609_4 	ReceivedBroadcasts 	8
scalar MyScenario.node[4].nic.mac1609_4 	SentPackets 	1
scalar MyScenario.node[4].nic.mac1609_4 	SNIRLostPackets 	1
scalar MyScenario.node[4].nic.mac1609_4 	RXTXLostPackets 	4
scalar MyScenario.node[4].nic.mac1609_4 	TotalLostPackets 	5
scalar MyScenario.node[4].nic.mac1609_4 	DroppedPacketsInMac 	0
scalar MyScenario.node[4].nic.mac1609_4 	TooLittleTime 	0
scalar MyScenario.node[4].nic.mac1609_4 	TimesIntoBackoff 	1
scalar MyScenario.node[4].nic.mac1609_4 	SlotsBackoff 	0
scalar MyScenario.node[4].nic.mac1609_4 	NumInternalContention 	0
scalar MyScenario.node[4].nic.mac1609_4 	totalBusyTime 	0.002321
scalar MyScenario.node[4].veinsmobility 	startTime 	1
scalar MyScenario.node[4].veinsmobility 	totalTime 	51
scalar MyScenario.node[4].veinsmobility 	stopTime 	53
scalar MyScenario.node[4].veinsmobility 	minSpeed 	2.5793165331706
scalar MyScenario.node[4].veinsmobility 	maxSpeed 	13.859934615972
scalar MyScenario.node[4].veinsmobility 	totalDistance 	576.48166490688
scalar MyScenario.node[4].veinsmobility 	totalCO2Emission 	164.40603616402
scalar MyScenario.node[20].appl 	generatedWSMs 	1
scalar MyScenario.node[20].appl 	receivedWSMs 	1
scalar MyScenario.node[20].appl 	generatedBSMs 	0
scalar MyScenario.node[20].appl 	receivedBSMs 	0
scalar MyScenario.node[20].appl 	generatedWSAs 	0
scalar MyScenario.node[20].appl 	receivedWSAs 	0
scalar MyScenario.node[20].nic.phy80211p 	busyTime 	8.9230769230769e-06
scalar MyScenario.node[20].nic.mac1609_4 	ReceivedUnicastPackets 	0
scalar MyScenario.node[20].nic.mac1609_4 	ReceivedBroadcasts 	1
scalar MyScenario.node[20].nic.mac1609_4 	SentPackets 	1
scalar MyScenario.node[20].nic.mac1609_4 	SNIRLostPackets 	1
scalar MyScenario.node[20].nic.mac1609_4 	RXTXLostPackets 	3
scalar MyScenario.node[20].nic.mac1609_4 	TotalLostPackets 	4
scalar MyScenario.node[20].nic.mac1609_4 	DroppedPacketsInMac 	0
scalar MyScenario.node[20].nic.mac1609_4 	TooLittleTime 	0
scalar MyScenario.node[20].nic.mac1609_4 	TimesIntoBackoff 	1
scalar MyScenario.node[20].nic.mac1609_4 	SlotsBackoff 	1
scalar MyScenario.node[20].nic.mac1609_4 	NumInternalContention 	0
scalar MyScenario.node[20].nic.mac1609_4 	totalBusyTime 	0.000697
scalar MyScenario.node[20].veinsmobility 	startTime 	1
scalar MyScenario.node[20].veinsmobility 	totalTime 	51
scalar MyScenario.node[20].veinsmobility 	stopTime 	53
scalar MyScenario.node[20].veinsmobility 	minSpeed 	1.9501527519198
scalar MyScenario.node[20].veinsmobility 	maxSpeed 	13.884880717495
scalar MyScenario.node[20].veinsmobility 	totalDistance 	575.95228417233
scalar MyScenario.node[20].veinsmobility 	totalCO2Emission 	180.68461433328
scalar MyScenario.node[91].appl 	generatedWSMs 	1
scalar MyScenario.node[91].appl 	receivedWSMs 	1
scalar MyScenario.node[91].appl 	generatedBSMs 	0
scalar MyScenario.node[91].appl 	receivedBSMs 	0
scalar MyScenario.node[91].appl 	generatedWSAs 	0
scalar MyScenario.node[91].appl 	receivedWSAs 	0
scalar MyScenario.node[91].nic.phy80211p 	busyTime 	4.5490196078431e-06
scalar MyScenario.node[91].nic.mac1609_4 	ReceivedUnicastPackets 	0
scalar MyScenario.node[91].nic.mac1609_4 	ReceivedBroadcasts 	1
scalar MyScenario.node[91].nic.mac1609_4 	SentPackets 	1
scalar MyScenario.node[91].nic.mac1609_4 	SNIRLostPackets 	0
scalar MyScenario.node[91].nic.mac1609_4 	RXTXLostPackets 	4
scalar MyScenario.node[91].nic.mac1609_4 	TotalLostPackets 	4
scalar MyScenario.node[91].nic.mac1609_4 	DroppedPacketsInMac 	0
scalar MyScenario.node[91].nic.mac1609_4 	TooLittleTime 	0
scalar MyScenario.node[91].nic.mac1609_4 	TimesIntoBackoff 	1
scalar MyScenario.node[91].nic.mac1609_4 	SlotsBackoff 	1
scalar MyScenario.node[91].nic.mac1609_4 	NumInternalContention 	0
scalar MyScenario.node[91].nic.mac1609_4 	totalBusyTime 	0.00046516942
scalar MyScenario.node[91].veinsmobility 	startTime 	4
scalar MyScenario.node[91].veinsmobility 	totalTime 	50
scalar MyScenario.node[91].veinsmobility 	stopTime 	55
scalar MyScenario.node[91].veinsmobility 	minSpeed 	2.1442179850535
scalar MyScenario.node[91].veinsmobility 	maxSpeed 	13.895613728464
scalar MyScenario.node[91].veinsmobility 	totalDistance 	560.16882071778
scalar MyScenario.node[91].veinsmobility 	totalCO2Emission 	172.85570151646
scalar MyScenario.node[33].appl 	generatedWSMs 	1
scalar MyScenario.node[33].appl 	receivedWSMs 	13
scalar MyScenario.node[33].appl 	generatedBSMs 	0
scalar MyScenario.node[33].appl 	receivedBSMs 	0
scalar MyScenario.node[33].appl 	generatedWSAs 	0
scalar MyScenario.node[33].appl 	receivedWSAs 	0
scalar MyScenario.node[33].nic.phy80211p 	busyTime 	8.8581818181818e-05
scalar MyScenario.node[33].nic.mac1609_4 	ReceivedUnicastPackets 	0
scalar MyScenario.node[33].nic.mac1609_4 	ReceivedBroadcasts 	13
scalar MyScenario.node[33].nic.mac1609_4 	SentPackets 	1
scalar MyScenario.node[33].nic.mac1609_4 	SNIRLostPackets 	8
scalar MyScenario.node[33].nic.mac1609_4 	RXTXLostPackets 	6
scalar MyScenario.node[33].nic.mac1609_4 	TotalLostPackets 	14
scalar MyScenario.node[33].nic.mac1609_4 	DroppedPacketsInMac 	0
scalar MyScenario.node[33].nic.mac1609_4 	TooLittleTime 	0
scalar MyScenario.node[33].nic.mac1609_4 	TimesIntoBackoff 	1
scalar MyScenario.node[33].nic.mac1609_4 	SlotsBackoff 	0
scalar MyScenario.node[33].nic.mac1609_4 	NumInternalContention 	0
scalar MyScenario.node[33].nic.mac1609_4 	totalBusyTime 	0.004177
scalar MyScenario.node[33].veinsmobility 	startTime 	1
scalar MyScenario.node[33].veinsmobility 	totalTime 	54
scalar MyScenario.node[33].veinsmobility 	stopTime 	56
scalar MyScenario.node[33].veinsmobility 	minSpeed 	1.3283102350542
scalar MyScenario.node[33].veinsmobility 	maxSpeed 	13.833067284152
scalar MyScenario.node[33].veinsmobility 	totalDistance 	572.33237660912
scalar MyScenario.node[33].veinsmobility 	totalCO2Emission 	189.42785363719
scalar MyScenario.node[57].appl 	generatedWSMs 	1
scalar MyScenario.node[57].appl 	receivedWSMs 	24
scalar MyScenario.node[57].appl 	generatedBSMs 	0
scalar MyScenario.node[57].appl 	receivedBSMs 	0
scalar MyScenario.node[57].appl 	generatedWSAs 	0
scalar MyScenario.node[57].appl 	receivedWSAs 	0
scalar MyScenario.node[57].nic.phy80211p 	busyTime 	0.00016872727272727
scalar MyScenario.node[57].nic.mac1609_4 	ReceivedUnicastPackets 	0
scalar MyScenario.node[57].nic.mac1609_4 	ReceivedBroadcasts 	24
scalar MyScenario.node[57].nic.mac1609_4 	SentPackets 	1
scalar MyScenario.node[57].nic.mac1609_4 	SNIRLostPackets 	16
scalar MyScenario.node[57].nic.mac1609_4 	RXTXLostPackets 	8
scalar MyScenario.node[57].nic.mac1609_4 	TotalLostPackets 	24
scalar MyScenario.node[57].nic.mac1609_4 	DroppedPacketsInMac 	0
scalar MyScenario.node[57].nic.mac1609_4 	TooLittleTime 	0
scalar MyScenario.node[57].nic.mac1609_4 	TimesIntoBackoff 	1
scalar MyScenario.node[57].nic.mac1609_4 	SlotsBackoff 	3
scalar MyScenario.node[57].nic.mac1609_4 	NumInternalContention 	0
scalar MyScenario.node[57].nic.mac1609_4 	totalBusyTime 	0.006497
scalar MyScenario.node[57].veinsmobility 	startTime 	1
scalar MyScenario.node[57].veinsmobility 	totalTime 	54
scalar MyScenario.node[57].veinsmobility 	stopTime 	56
scalar MyScenario.node[57].veinsmobility 	minSpeed 	2.1699089774163
scalar MyScenario.node[57].veinsmobility 	maxSpeed 	13.863251921604
scalar MyScenario.node[57].veinsmobility 	totalDistance 	662.40574312715
scalar MyScenario.node[57].veinsmobility 	totalCO2Emission 	156.45916845648
scalar MyScenario.node[38].appl 	generatedWSMs 	0
scalar MyScenario.node[38].appl 	receivedWSMs 	0
scalar MyScenario.node[38].appl 	generatedBSMs 	0
scalar MyScenario.node[38].appl 	receivedBSMs 	0
scalar MyScenario.node[38].appl 	generatedWSAs 	0
scalar MyScenario.node[38].appl 	receivedWSAs 	0
scalar MyScenario.node[38].nic.phy80211p 	busyTime 	4.1428571428571e-06
scalar MyScenario.node[38].nic.mac1609_4 	ReceivedUnicastPackets 	0
scalar MyScenario.node[38].nic.mac1609_4 	ReceivedBroadcasts 	0
scalar MyScenario.node[38].nic.mac1609_4 	SentPackets 	0
scalar MyScenario.node[38].nic.mac1609_4 	SNIRLostPackets 	1
scalar MyScenario.node[38].nic.mac1609_4 	RXTXLostPackets 	0
scalar MyScenario.node[38].nic.mac1609_4 	TotalLostPackets 	1
scalar MyScenario.node[38].nic.mac1609_4 	DroppedPacketsInMac 	0
scalar MyScenario.node[38].nic.mac1609_4 	TooLittleTime 	0
scalar MyScenario.node[38].nic.mac1609_4 	TimesIntoBackoff 	0
scalar MyScenario.node[38].nic.mac1609_4 	SlotsBackoff 	0
scalar MyScenario.node[38].nic.mac1609_4 	NumInternalContention 	0
scalar MyScenario.node[38].nic.mac1609_4 	totalBusyTime 	0.000232
scalar MyScenario.node[38].veinsmobility 	startTime 	1
scalar MyScenario.node[38].veinsmobility 	totalTime 	55
scalar MyScenario.node[38].veinsmobility 	stopTime 	57
scalar MyScenario.node[38].veinsmobility 	minSpeed 	2.1918069144012
scalar MyScenario.node[38].veinsmobility 	maxSpeed 	13.883105643722
scalar MyScenario.node[38].veinsmobility 	totalDistance 	665.45891062961
scalar MyScenario.node[38].veinsmobility 	totalCO2Emission 	154.87927911544
scalar MyScenario.node[53].appl 	generatedWSMs 	1
scalar MyScenario.node[53].appl 	receivedWSMs 	5
scalar MyScenario.node[53].appl 	generatedBSMs 	0
scalar MyScenario.node[53].appl 	receivedBSMs 	0
scalar MyScenario.node[53].appl 	generatedWSAs 	0
scalar MyScenario.node[53].appl 	receivedWSAs 	0
scalar MyScenario.node[53].nic.phy80211p 	busyTime 	4.9714285714286e-05
scalar MyScenario.node[53].nic.mac1609_4 	ReceivedUnicastPackets 	0
scalar MyScenario.node[53].nic.mac1609_4 	ReceivedBroadcasts 	5
scalar MyScenario.node[53].nic.mac1609_4 	SentPackets 	1
scalar MyScenario.node[53].nic.mac1609_4 	SNIRLostPackets 	7
scalar MyScenario.node[53].nic.mac1609_4 	RXTXLostPackets 	7
scalar MyScenario.node[53].nic.mac1609_4 	TotalLostPackets 	14
scalar MyScenario.node[53].nic.mac1609_4 	DroppedPacketsInMac 	0
scalar MyScenario.node[53].nic.mac1609_4 	TooLittleTime 	0
scalar MyScenario.node[53].nic.mac1609_4 	TimesIntoBackoff 	1
scalar MyScenario.node[53].nic.mac1609_4 	SlotsBackoff 	0
scalar MyScenario.node[53].nic.mac1609_4 	NumInternalContention 	0
scalar MyScenario.node[53].nic.mac1609_4 	totalBusyTime 	0.001625037084
scalar MyScenario.node[53].veinsmobility 	startTime 	1
scalar MyScenario.node[53].veinsmobility 	totalTime 	55
scalar MyScenario.node[53].veinsmobility 	stopTime 	57
scalar MyScenario.node[53].veinsmobility 	minSpeed 	1.8869631084148
scalar MyScenario.node[53].veinsmobility 	maxSpeed 	13.871653578663
scalar MyScenario.node[53].veinsmobility 	totalDistance 	563.52633209449
scalar MyScenario.node[53].veinsmobility 	totalCO2Emission 	198.00382454642
scalar MyScenario.node[77].appl 	generatedWSMs 	1
scalar MyScenario.node[77].appl 	receivedWSMs 	19
scalar MyScenario.node[77].appl 	generatedBSMs 	0
scalar MyScenario.node[77].appl 	receivedBSMs 	0
scalar MyScenario.node[77].appl 	generatedWSAs 	0
scalar MyScenario.node[77].appl 	receivedWSAs 	0
scalar MyScenario.node[77].nic.phy80211p 	busyTime 	9.3614035087719e-05
scalar MyScenario.node[77].nic.mac1609_4 	ReceivedUnicastPackets 	0
scalar MyScenario.node[77].nic.mac1609_4 	ReceivedBroadcasts 	19
scalar MyScenario.node[77].nic.mac1609_4 	SentPackets 	1
scalar MyScenario.node[77].nic.mac1609_4 	SNIRLostPackets 	4
scalar MyScenario.node[77].nic.mac1609_4 	RXTXLostPackets 	12
scalar MyScenario.node[77].nic.mac1609_4 	TotalLostPackets 	16
scalar MyScenario.node[77].nic.mac1609_4 	DroppedPacketsInMac 	0
scalar MyScenario.node[77].nic.mac1609_4 	TooLittleTime 	0
scalar MyScenario.node[77].nic.mac1609_4 	TimesIntoBackoff 	1
scalar MyScenario.node[77].nic.mac1609_4 	SlotsBackoff 	3
scalar MyScenario.node[77].nic.mac1609_4 	NumInternalContention 	0
scalar MyScenario.node[77].nic.mac1609_4 	totalBusyTime 	0.005337
scalar MyScenario.node[77].veinsmobility 	startTime 	1
scalar MyScenario.node[77].veinsmobility 	totalTime 	56
scalar MyScenario.node[77].veinsmobility 	stopTime 	58
scalar MyScenario.node[77].veinsmobility 	minSpeed 	0.045416328511356
scalar MyScenario.node[77].veinsmobility 	maxSpeed 	13.885575205483
scalar MyScenario.node[77].veinsmobility 	totalDistance 	559.31579685785
scalar MyScenario.node[77].veinsmobility 	totalCO2Emission 	177.72834139164
scalar MyScenario.node[6].appl 	generatedWSMs 	1
scalar MyScenario.node[6].appl 	receivedWSMs 	1
scalar MyScenario.node[6].appl 	generatedBSMs 	0
scalar MyScenario.node[6].appl 	receivedBSMs 	0
scalar MyScenario.node[6].appl 	generatedWSAs 	0
scalar MyScenario.node[6].appl 	receivedWSAs 	0
scalar MyScenario.node[6].nic.phy80211p 	busyTime 	2.3593220338983e-05
scalar MyScenario.node[6].nic.mac1609_4 	ReceivedUnicastPackets 	0
scalar MyScenario.node[6].nic.mac1609_4 	ReceivedBroadcasts 	1
scalar MyScenario.node[6].nic.mac1609_4 	SentPackets 	1
scalar MyScenario.node[6].nic.mac1609_4 	SNIRLostPackets 	5
scalar MyScenario.node[6].nic.mac1609_4 	RXTXLostPackets 	3
scalar MyScenario.node[6].nic.mac1609_4 	TotalLostPackets 	8
scalar MyScenario.node[6].nic.mac1609_4 	DroppedPacketsInMac 	0
scalar MyScenario.node[6].nic.mac1609_4 	TooLittleTime 	0
scalar MyScenario.node[6].nic.mac1609_4 	TimesIntoBackoff 	1
scalar MyScenario.node[6].nic.mac1609_4 	SlotsBackoff 	1
scalar MyScenario.node[6].nic.mac1609_4 	NumInternalContention 	0
scalar MyScenario.node[6].nic.mac1609_4 	totalBusyTime 	0.001161
scalar MyScenario.node[6].veinsmobility 	startTime 	1
scalar MyScenario.node[6].veinsmobility 	totalTime 	58
scalar MyScenario.node[6].veinsmobility 	stopTime 	60
scalar MyScenario.node[6].veinsmobility 	minSpeed 	1.4705581072718
scalar MyScenario.node[6].veinsmobility 	maxSpeed 	13.897939351434
scalar MyScenario.node[6].veinsmobility 	totalDistance 	674.22078279319
scalar MyScenario.node[6].veinsmobility 	totalCO2Emission 	187.91914499258
scalar MyScenario.node[81].appl 	generatedWSMs 	1
scalar MyScenario.node[81].appl 	receivedWSMs 	6
scalar MyScenario.node[81].appl 	generatedBSMs 	0
scalar MyScenario.node[81].appl 	receivedBSMs 	0
scalar MyScenario.node[81].appl 	generatedWSAs 	0
scalar MyScenario.node[81].appl 	receivedWSAs 	0
scalar MyScenario.node[81].nic.phy80211p 	busyTime 	4.7186440677966e-05
scalar MyScenario.node[81].nic.mac1609_4 	ReceivedUnicastPackets 	0
scalar MyScenario.node[81].nic.mac1609_4 	ReceivedBroadcasts 	6
scalar MyScenario.node[81].nic.mac1609_4 	SentPackets 	1
scalar MyScenario.node[81].nic.mac1609_4 	SNIRLostPackets 	6
scalar MyScenario.node[81].nic.mac1609_4 	RXTXLostPackets 	4
scalar MyScenario.node[81].nic.mac1609_4 	TotalLostPackets 	10
scalar MyScenario.node[81].nic.mac1609_4 	DroppedPacketsInMac 	0
scalar MyScenario.node[81].nic.mac1609_4 	TooLittleTime 	0
scalar MyScenario.node[81].nic.mac1609_4 	TimesIntoBackoff 	1
scalar MyScenario.node[81].nic.mac1609_4 	SlotsBackoff 	2
scalar MyScenario.node[81].nic.mac1609_4 	NumInternalContention 	0
scalar MyScenario.node[81].nic.mac1609_4 	totalBusyTime 	0.002089058785
scalar MyScenario.node[81].veinsmobility 	startTime 	1
scalar MyScenario.node[81].veinsmobility 	totalTime 	58
scalar MyScenario.node[81].veinsmobility 	stopTime 	60
scalar MyScenario.node[81].veinsmobility 	minSpeed 	2.5676310051
scalar MyScenario.node[81].veinsmobility 	maxSpeed 	13.896815393143
scalar MyScenario.node[81].veinsmobility 	totalDistance 	668.03028455492
scalar MyScenario.node[81].veinsmobility 	totalCO2Emission 	193.66762706556
scalar MyScenario.node[44].appl 	generatedWSMs 	1
scalar MyScenario.node[44].appl 	receivedWSMs 	6
scalar MyScenario.node[44].appl 	generatedBSMs 	0
scalar MyScenario.node[44].appl 	receivedBSMs 	0
scalar MyScenario.node[44].appl 	generatedWSAs 	0
scalar MyScenario.node[44].appl 	receivedWSAs 	0
scalar MyScenario.node[44].nic.phy80211p 	busyTime 	6.5733333333333e-05
scalar MyScenario.node[44].nic.mac1609_4 	ReceivedUnicastPackets 	0
scalar MyScenario.node[44].nic.mac1609_4 	ReceivedBroadcasts 	6
scalar MyScenario.node[44].nic.mac1609_4 	SentPackets 	1
scalar MyScenario.node[44].nic.mac1609_4 	SNIRLostPackets 	11
scalar MyScenario.node[44].nic.mac1609_4 	RXTXLostPackets 	6
scalar MyScenario.node[44].nic.mac1609_4 	TotalLostPackets 	17
scalar MyScenario.node[44].nic.mac1609_4 	DroppedPacketsInMac 	0
scalar MyScenario.node[44].nic.mac1609_4 	TooLittleTime 	0
scalar MyScenario.node[44].nic.mac1609_4 	TimesIntoBackoff 	1
scalar MyScenario.node[44].nic.mac1609_4 	SlotsBackoff 	2
scalar MyScenario.node[44].nic.mac1609_4 	NumInternalContention 	0
scalar MyScenario.node[44].nic.mac1609_4 	totalBusyTime 	0.002089118615
scalar MyScenario.node[44].veinsmobility 	startTime 	1
scalar MyScenario.node[44].veinsmobility 	totalTime 	59
scalar MyScenario.node[44].veinsmobility 	stopTime 	61
scalar MyScenario.node[44].veinsmobility 	minSpeed 	2.5142827522242
scalar MyScenario.node[44].veinsmobility 	maxSpeed 	13.732225052896
scalar MyScenario.node[44].veinsmobility 	totalDistance 	661.41238836441
scalar MyScenario.node[44].veinsmobility 	totalCO2Emission 	189.60435115404
scalar MyScenario.node[31].appl 	generatedWSMs 	0
scalar MyScenario.node[31].appl 	receivedWSMs 	0
scalar MyScenario.node[31].appl 	generatedBSMs 	0
scalar MyScenario.node[31].appl 	receivedBSMs 	0
scalar MyScenario.node[31].appl 	generatedWSAs 	0
scalar MyScenario.node[31].appl 	receivedWSAs 	0
scalar MyScenario.node[31].nic.phy80211p 	busyTime 	2.2819672131148e-05
scalar MyScenario.node[31].nic.mac1609_4 	ReceivedUnicastPackets 	0
scalar MyScenario.node[31].nic.mac1609_4 	ReceivedBroadcasts 	0
scalar MyScenario.node[31].nic.mac1609_4 	SentPackets 	0
scalar MyScenario.node[31].nic.mac1609_4 	SNIRLostPackets 	6
scalar MyScenario.node[31].nic.mac1609_4 	RXTXLostPackets 	0
scalar MyScenario.node[31].nic.mac1609_4 	TotalLostPackets 	6
scalar MyScenario.node[31].nic.mac1609_4 	DroppedPacketsInMac 	0
scalar MyScenario.node[31].nic.mac1609_4 	TooLittleTime 	0
scalar MyScenario.node[31].nic.mac1609_4 	TimesIntoBackoff 	0
scalar MyScenario.node[31].nic.mac1609_4 	SlotsBackoff 	0
scalar MyScenario.node[31].nic.mac1609_4 	NumInternalContention 	0
scalar MyScenario.node[31].nic.mac1609_4 	totalBusyTime 	0.000696
scalar MyScenario.node[31].veinsmobility 	startTime 	1
scalar MyScenario.node[31].veinsmobility 	totalTime 	60
scalar MyScenario.node[31].veinsmobility 	stopTime 	62
scalar MyScenario.node[31].veinsmobility 	minSpeed 	1.3648316577077
scalar MyScenario.node[31].veinsmobility 	maxSpeed 	13.836319947965
scalar MyScenario.node[31].veinsmobility 	totalDistance 	668.83291047845
scalar MyScenario.node[31].veinsmobility 	totalCO2Emission 	199.97416112206
scalar MyScenario.node[65].appl 	generatedWSMs 	1
scalar MyScenario.node[65].appl 	receivedWSMs 	8
scalar MyScenario.node[65].appl 	generatedBSMs 	0
scalar MyScenario.node[65].appl 	receivedBSMs 	0
scalar MyScenario.node[65].appl 	generatedWSAs 	0
scalar MyScenario.node[65].appl 	receivedWSAs 	0
scalar MyScenario.node[65].nic.phy80211p 	busyTime 	4.4903225806452e-05
scalar MyScenario.node[65].nic.mac1609_4 	ReceivedUnicastPackets 	0
scalar MyScenario.node[65].nic.mac1609_4 	ReceivedBroadcasts 	8
scalar MyScenario.node[65].nic.mac1609_4 	SentPackets 	1
scalar MyScenario.node[65].nic.mac1609_4 	SNIRLostPackets 	4
scalar MyScenario.node[65].nic.mac1609_4 	RXTXLostPackets 	4
scalar MyScenario.node[65].nic.mac1609_4 	TotalLostPackets 	8
scalar MyScenario.node[65].nic.mac1609_4 	DroppedPacketsInMac 	0
scalar MyScenario.node[65].nic.mac1609_4 	TooLittleTime 	0
scalar MyScenario.node[65].nic.mac1609_4 	TimesIntoBackoff 	1
scalar MyScenario.node[65].nic.mac1609_4 	SlotsBackoff 	2
scalar MyScenario.node[65].nic.mac1609_4 	NumInternalContention 	0
scalar MyScenario.node[65].nic.mac1609_4 	totalBusyTime 	0.002553155364
scalar MyScenario.node[65].veinsmobility 	startTime 	1
scalar MyScenario.node[65].veinsmobility 	totalTime 	61
scalar MyScenario.node[65].veinsmobility 	stopTime 	63
scalar MyScenario.node[65].veinsmobility 	minSpeed 	0.00069082944594953
scalar MyScenario.node[65].veinsmobility 	maxSpeed 	13.820234244457
scalar MyScenario.node[65].veinsmobility 	totalDistance 	579.1356972855
scalar MyScenario.node[65].veinsmobility 	totalCO2Emission 	178.01908855549
scalar MyScenario.node[47].appl 	generatedWSMs 	1
scalar MyScenario.node[47].appl 	receivedWSMs 	1
scalar MyScenario.node[47].appl 	generatedBSMs 	0
scalar MyScenario.node[47].appl 	receivedBSMs 	0
scalar MyScenario.node[47].appl 	generatedWSAs 	0
scalar MyScenario.node[47].appl 	receivedWSAs 	0
scalar MyScenario.node[47].nic.phy80211p 	busyTime 	2.6193548387097e-05
scalar MyScenario.node[47].nic.mac1609_4 	ReceivedUnicastPackets 	0
scalar MyScenario.node[47].nic.mac1609_4 	ReceivedBroadcasts 	1
scalar MyScenario.node[47].nic.mac1609_4 	SentPackets 	1
scalar MyScenario.node[47].nic.mac1609_4 	SNIRLostPackets 	6
scalar MyScenario.node[47].nic.mac1609_4 	RXTXLostPackets 	2
scalar MyScenario.node[47].nic.mac1609_4 	TotalLostPackets 	8
scalar MyScenario.node[47].nic.mac1609_4 	DroppedPacketsInMac 	0
scalar MyScenario.node[47].nic.mac1609_4 	TooLittleTime 	0
scalar MyScenario.node[47].nic.mac1609_4 	TimesIntoBackoff 	1
scalar MyScenario.node[47].nic.mac1609_4 	SlotsBackoff 	2
scalar MyScenario.node[47].nic.mac1609_4 	NumInternalContention 	0
scalar MyScenario.node[47].nic.mac1609_4 	totalBusyTime 	0.001393
scalar MyScenario.node[47].veinsmobility 	startTime 	1
scalar MyScenario.node[47].veinsmobility 	totalTime 	61
scalar MyScenario.node[47].veinsmobility 	stopTime 	63
scalar MyScenario.node[47].veinsmobility 	minSpeed 	3.5057841711901e-07
scalar MyScenario.node[47].veinsmobility 	maxSpeed 	13.862153846072
scalar MyScenario.node[47].veinsmobility 	totalDistance 	572.97753829152
scalar MyScenario.node[47].veinsmobility 	totalCO2Emission 	169.52081649835
scalar MyScenario.node[46].appl 	generatedWSMs 	1
scalar MyScenario.node[46].appl 	receivedWSMs 	13
scalar MyScenario.node[46].appl 	generatedBSMs 	0
scalar MyScenario.node[46].appl 	receivedBSMs 	0
scalar MyScenario.node[46].appl 	generatedWSAs 	0
scalar MyScenario.node[46].appl 	receivedWSAs 	0
scalar MyScenario.node[46].nic.phy80211p 	busyTime 	6.1625e-05
scalar MyScenario.node[46].nic.mac1609_4 	ReceivedUnicastPackets 	0
scalar MyScenario.node[46].nic.mac1609_4 	ReceivedBroadcasts 	13
scalar MyScenario.node[46].nic.mac1609_4 	SentPackets 	1
scalar MyScenario.node[46].nic.mac1609_4 	SNIRLostPackets 	4
scalar MyScenario.node[46].nic.mac1609_4 	RXTXLostPackets 	1
scalar MyScenario.node[46].nic.mac1609_4 	TotalLostPackets 	5
scalar MyScenario.node[46].nic.mac1609_4 	DroppedPacketsInMac 	0
scalar MyScenario.node[46].nic.mac1609_4 	TooLittleTime 	0
scalar MyScenario.node[46].nic.mac1609_4 	TimesIntoBackoff 	1
scalar MyScenario.node[46].nic.mac1609_4 	SlotsBackoff 	3
scalar MyScenario.node[46].nic.mac1609_4 	NumInternalContention 	0
scalar MyScenario.node[46].nic.mac1609_4 	totalBusyTime 	0.003713
scalar MyScenario.node[46].veinsmobility 	startTime 	1
scalar MyScenario.node[46].veinsmobility 	totalTime 	63
scalar MyScenario.node[46].veinsmobility 	stopTime 	65
scalar MyScenario.node[46].veinsmobility 	minSpeed 	0.0082652674560047
scalar MyScenario.node[46].veinsmobility 	maxSpeed 	13.876821278431
scalar MyScenario.node[46].veinsmobility 	totalDistance 	663.30763207187
scalar MyScenario.node[46].veinsmobility 	totalCO2Emission 	203.32878167779
scalar MyScenario.node[0].appl 	generatedWSMs 	22
scalar MyScenario.node[0].appl 	receivedWSMs 	8
scalar MyScenario.node[0].appl 	generatedBSMs 	0
scalar MyScenario.node[0].appl 	receivedBSMs 	0
scalar MyScenario.node[0].appl 	generatedWSAs 	0
scalar MyScenario.node[0].appl 	receivedWSAs 	0
scalar MyScenario.node[0].nic.phy80211p 	busyTime 	7.8523076923077e-05
scalar MyScenario.node[0].nic.mac1609_4 	ReceivedUnicastPackets 	0
scalar MyScenario.node[0].nic.mac1609_4 	ReceivedBroadcasts 	8
scalar MyScenario.node[0].nic.mac1609_4 	SentPackets 	22
scalar MyScenario.node[0].nic.mac1609_4 	SNIRLostPackets 	14
scalar MyScenario.node[0].nic.mac1609_4 	RXTXLostPackets 	0
scalar MyScenario.node[0].nic.mac1609_4 	TotalLostPackets 	14
scalar MyScenario.node[0].nic.mac1609_4 	DroppedPacketsInMac 	0
scalar MyScenario.node[0].nic.mac1609_4 	TooLittleTime 	0
scalar MyScenario.node[0].nic.mac1609_4 	TimesIntoBackoff 	22
scalar MyScenario.node[0].nic.mac1609_4 	SlotsBackoff 	28
scalar MyScenario.node[0].nic.mac1609_4 	NumInternalContention 	0
scalar MyScenario.node[0].nic.mac1609_4 	totalBusyTime 	0.007214
scalar MyScenario.node[0].veinsmobility 	startTime 	1
scalar MyScenario.node[0].veinsmobility 	totalTime 	64
scalar MyScenario.node[0].veinsmobility 	stopTime 	66
scalar MyScenario.node[0].veinsmobility 	minSpeed 	2.0122388571268
scalar MyScenario.node[0].veinsmobility 	maxSpeed 	13.840415252768
scalar MyScenario.node[0].veinsmobility 	totalDistance 	765.2299938472
scalar MyScenario.node[0].veinsmobility 	totalCO2Emission 	199.77113336428
scalar MyScenario.node[73].appl 	generatedWSMs 	1
scalar MyScenario.node[73].appl 	receivedWSMs 	2
scalar MyScenario.node[73].appl 	generatedBSMs 	0
scalar MyScenario.node[73].appl 	receivedBSMs 	0
scalar MyScenario.node[73].appl 	generatedWSAs 	0
scalar MyScenario.node[73].appl 	receivedWSAs 	0
scalar MyScenario.node[73].nic.phy80211p 	busyTime 	2.1415384615385e-05
scalar MyScenario.node[73].nic.mac1609_4 	ReceivedUnicastPackets 	0
scalar MyScenario.node[73].nic.mac1609_4 	ReceivedBroadcasts 	2
scalar MyScenario.node[73].nic.mac1609_4 	SentPackets 	1
scalar MyScenario.node[73].nic.mac1609_4 	SNIRLostPackets 	4
scalar MyScenario.node[73].nic.mac1609_4 	RXTXLostPackets 	7
scalar MyScenario.node[73].nic.mac1609_4 	TotalLostPackets 	11
scalar MyScenario.node[73].nic.mac1609_4 	DroppedPacketsInMac 	0
scalar MyScenario.node[73].nic.mac1609_4 	TooLittleTime 	0
scalar MyScenario.node[73].nic.mac1609_4 	TimesIntoBackoff 	1
scalar MyScenario.node[73].nic.mac1609_4 	SlotsBackoff 	3
scalar MyScenario.node[73].nic.mac1609_4 	NumInternalContention 	0
scalar MyScenario.node[73].nic.mac1609_4 	totalBusyTime 	0.000929048731
scalar MyScenario.node[73].veinsmobility 	startTime 	1
scalar MyScenario.node[73].veinsmobility 	totalTime 	64
scalar MyScenario.node[73].veinsmobility 	stopTime 	66
scalar MyScenario.node[73].veinsmobility 	minSpeed 	1.9620043413481
scalar MyScenario.node[73].veinsmobility 	maxSpeed 	13.816417286452
scalar MyScenario.node[73].veinsmobility 	totalDistance 	660.63837131442
scalar MyScenario.node[73].veinsmobility 	totalCO2Emission 	231.93605539042
scalar MyScenario.node[16].appl 	generatedWSMs 	1
scalar MyScenario.node[16].appl 	receivedWSMs 	1
scalar MyScenario.node[16].appl 	generatedBSMs 	0
scalar MyScenario.node[16].appl 	receivedBSMs 	0
scalar MyScenario.node[16].appl 	generatedWSAs 	0
scalar MyScenario.node[16].appl 	receivedWSAs 	0
scalar MyScenario.node[16].nic.phy80211p 	busyTime 	6.7815384615385e-05
scalar MyScenario.node[16].nic.mac1609_4 	ReceivedUnicastPackets 	0
scalar MyScenario.node[16].nic.mac1609_4 	ReceivedBroadcasts 	1
scalar MyScenario.node[16].nic.mac1609_4 	SentPackets 	1
scalar MyScenario.node[16].nic.mac1609_4 	SNIRLostPackets 	18
scalar MyScenario.node[16].nic.mac1609_4 	RXTXLostPackets 	0
scalar MyScenario.node[16].nic.mac1609_4 	TotalLostPackets 	18
scalar MyScenario.node[16].nic.mac1609_4 	DroppedPacketsInMac 	0
scalar MyScenario.node[16].nic.mac1609_4 	TooLittleTime 	0
scalar MyScenario.node[16].nic.mac1609_4 	TimesIntoBackoff 	1
scalar MyScenario.node[16].nic.mac1609_4 	SlotsBackoff 	0
scalar MyScenario.node[16].nic.mac1609_4 	NumInternalContention 	0
scalar MyScenario.node[16].nic.mac1609_4 	totalBusyTime 	0.001161
scalar MyScenario.node[16].veinsmobility 	startTime 	1
scalar MyScenario.node[16].veinsmobility 	totalTime 	64
scalar MyScenario.node[16].veinsmobility 	stopTime 	66
scalar MyScenario.node[16].veinsmobility 	minSpeed 	0.0014818645400577
scalar MyScenario.node[16].veinsmobility 	maxSpeed 	13.899759606225
scalar MyScenario.node[16].veinsmobility 	totalDistance 	674.13335091548
scalar MyScenario.node[16].veinsmobility 	totalCO2Emission 	194.49249842034
scalar MyScenario.node[11].appl 	generatedWSMs 	1
scalar MyScenario.node[11].appl 	receivedWSMs 	8
scalar MyScenario.node[11].appl 	generatedBSMs 	0
scalar MyScenario.node[11].appl 	receivedBSMs 	0
scalar MyScenario.node[11].appl 	generatedWSAs 	0
scalar MyScenario.node[11].appl 	receivedWSAs 	0
scalar MyScenario.node[11].nic.phy80211p 	busyTime 	7.030303030303e-05
scalar MyScenario.node[11].nic.mac1609_4 	ReceivedUnicastPackets 	0
scalar MyScenario.node[11].nic.mac1609_4 	ReceivedBroadcasts 	8
scalar MyScenario.node[11].nic.mac1609_4 	SentPackets 	1
scalar MyScenario.node[11].nic.mac1609_4 	SNIRLostPackets 	12
scalar MyScenario.node[11].nic.mac1609_4 	RXTXLostPackets 	7
scalar MyScenario.node[11].nic.mac1609_4 	TotalLostPackets 	19
scalar MyScenario.node[11].nic.mac1609_4 	DroppedPacketsInMac 	0
scalar MyScenario.node[11].nic.mac1609_4 	TooLittleTime 	0
scalar MyScenario.node[11].nic.mac1609_4 	TimesIntoBackoff 	1
scalar MyScenario.node[11].nic.mac1609_4 	SlotsBackoff 	0
scalar MyScenario.node[11].nic.mac1609_4 	NumInternalContention 	0
scalar MyScenario.node[11].nic.mac1609_4 	totalBusyTime 	0.003017075504
scalar MyScenario.node[11].veinsmobility 	startTime 	1
scalar MyScenario.node[11].veinsmobility 	totalTime 	65
scalar MyScenario.node[11].veinsmobility 	stopTime 	67
scalar MyScenario.node[11].veinsmobility 	minSpeed 	2.1502351778792
scalar MyScenario.node[11].veinsmobility 	maxSpeed 	13.89408380629
scalar MyScenario.node[11].veinsmobility 	totalDistance 	777.96074647052
scalar MyScenario.node[11].veinsmobility 	totalCO2Emission 	205.20256198095
scalar MyScenario.node[19].appl 	generatedWSMs 	1
scalar MyScenario.node[19].appl 	receivedWSMs 	8
scalar MyScenario.node[19].appl 	generatedBSMs 	0
scalar MyScenario.node[19].appl 	receivedBSMs 	0
scalar MyScenario.node[19].appl 	generatedWSAs 	0
scalar MyScenario.node[19].appl 	receivedWSAs 	0
scalar MyScenario.node[19].nic.phy80211p 	busyTime 	6.2328358208955e-05
scalar MyScenario.node[19].nic.mac1609_4 	ReceivedUnicastPackets 	0
scalar MyScenario.node[19].nic.mac1609_4 	ReceivedBroadcasts 	8
scalar MyScenario.node[19].nic.mac1609_4 	SentPackets 	1
scalar MyScenario.node[19].nic.mac1609_4 	SNIRLostPackets 	10
scalar MyScenario.node[19].nic.mac1609_4 	RXTXLostPackets 	7
scalar MyScenario.node[19].nic.mac1609_4 	TotalLostPackets 	17
scalar MyScenario.node[19].nic.mac1609_4 	DroppedPacketsInMac 	0
scalar MyScenario.node[19].nic.mac1609_4 	TooLittleTime 	0
scalar MyScenario.node[19].nic.mac1609_4 	TimesIntoBackoff 	1
scalar MyScenario.node[19].nic.mac1609_4 	SlotsBackoff 	2
scalar MyScenario.node[19].nic.mac1609_4 	NumInternalContention 	0
scalar MyScenario.node[19].nic.mac1609_4 	totalBusyTime 	0.002785057142
scalar MyScenario.node[19].veinsmobility 	startTime 	1
scalar MyScenario.node[19].veinsmobility 	totalTime 	66
scalar MyScenario.node[19].veinsmobility 	stopTime 	68
scalar MyScenario.node[19].veinsmobility 	minSpeed 	2.3737314092694
scalar MyScenario.node[19].veinsmobility 	maxSpeed 	13.889351451234
scalar MyScenario.node[19].veinsmobility 	totalDistance 	759.07549852393
scalar MyScenario.node[19].veinsmobility 	totalCO2Emission 	211.31197488716
scalar MyScenario.node[13].appl 	generatedWSMs 	1
scalar MyScenario.node[13].appl 	receivedWSMs 	1
scalar MyScenario.node[13].appl 	generatedBSMs 	0
scalar MyScenario.node[13].appl 	receivedBSMs 	0
scalar MyScenario.node[13].appl 	generatedWSAs 	0
scalar MyScenario.node[13].appl 	receivedWSAs 	0
scalar MyScenario.node[13].nic.phy80211p 	busyTime 	4.8477611940299e-05
scalar MyScenario.node[13].nic.mac1609_4 	ReceivedUnicastPackets 	0
scalar MyScenario.node[13].nic.mac1609_4 	ReceivedBroadcasts 	1
scalar MyScenario.node[13].nic.mac1609_4 	SentPackets 	1
scalar MyScenario.node[13].nic.mac1609_4 	SNIRLostPackets 	13
scalar MyScenario.node[13].nic.mac1609_4 	RXTXLostPackets 	0
scalar MyScenario.node[13].nic.mac1609_4 	TotalLostPackets 	13
scalar MyScenario.node[13].nic.mac1609_4 	DroppedPacketsInMac 	0
scalar MyScenario.node[13].nic.mac1609_4 	TooLittleTime 	0
scalar MyScenario.node[13].nic.mac1609_4 	TimesIntoBackoff 	1
scalar MyScenario.node[13].nic.mac1609_4 	SlotsBackoff 	2
scalar MyScenario.node[13].nic.mac1609_4 	NumInternalContention 	0
scalar MyScenario.node[13].nic.mac1609_4 	totalBusyTime 	0.001857
scalar MyScenario.node[13].veinsmobility 	startTime 	1
scalar MyScenario.node[13].veinsmobility 	totalTime 	66
scalar MyScenario.node[13].veinsmobility 	stopTime 	68
scalar MyScenario.node[13].veinsmobility 	minSpeed 	1.5720074419398
scalar MyScenario.node[13].veinsmobility 	maxSpeed 	13.858520513633
scalar MyScenario.node[13].veinsmobility 	totalDistance 	767.60569932033
scalar MyScenario.node[13].veinsmobility 	totalCO2Emission 	193.60826035155
scalar MyScenario.node[52].appl 	generatedWSMs 	0
scalar MyScenario.node[52].appl 	receivedWSMs 	0
scalar MyScenario.node[52].appl 	generatedBSMs 	0
scalar MyScenario.node[52].appl 	receivedBSMs 	0
scalar MyScenario.node[52].appl 	generatedWSAs 	0
scalar MyScenario.node[52].appl 	receivedWSAs 	0
scalar MyScenario.node[52].nic.phy80211p 	busyTime 	3.4117647058824e-06
scalar MyScenario.node[52].nic.mac1609_4 	ReceivedUnicastPackets 	0
scalar MyScenario.node[52].nic.mac1609_4 	ReceivedBroadcasts 	0
scalar MyScenario.node[52].nic.mac1609_4 	SentPackets 	0
scalar MyScenario.node[52].nic.mac1609_4 	SNIRLostPackets 	1
scalar MyScenario.node[52].nic.mac1609_4 	RXTXLostPackets 	0
scalar MyScenario.node[52].nic.mac1609_4 	TotalLostPackets 	1
scalar MyScenario.node[52].nic.mac1609_4 	DroppedPacketsInMac 	0
scalar MyScenario.node[52].nic.mac1609_4 	TooLittleTime 	0
scalar MyScenario.node[52].nic.mac1609_4 	TimesIntoBackoff 	0
scalar MyScenario.node[52].nic.mac1609_4 	SlotsBackoff 	0
scalar MyScenario.node[52].nic.mac1609_4 	NumInternalContention 	0
scalar MyScenario.node[52].nic.mac1609_4 	totalBusyTime 	0.000232
scalar MyScenario.node[52].veinsmobility 	startTime 	1
scalar MyScenario.node[52].veinsmobility 	totalTime 	67
scalar MyScenario.node[52].veinsmobility 	stopTime 	69
scalar MyScenario.node[52].veinsmobility 	minSpeed 	3.9699646345366e-10
scalar MyScenario.node[52].veinsmobility 	maxSpeed 	13.893406345858
scalar MyScenario.node[52].veinsmobility 	totalDistance 	670.43673553125
scalar MyScenario.node[52].veinsmobility 	totalCO2Emission 	174.25416287457
scalar MyScenario.node[10].appl 	generatedWSMs 	1
scalar MyScenario.node[10].appl 	receivedWSMs 	1
scalar MyScenario.node[10].appl 	generatedBSMs 	0
scalar MyScenario.node[10].appl 	receivedBSMs 	0
scalar MyScenario.node[10].appl 	generatedWSAs 	0
scalar MyScenario.node[10].appl 	receivedWSAs 	0
scalar MyScenario.node[10].nic.phy80211p 	busyTime 	2.0470588235294e-05
scalar MyScenario.node[10].nic.mac1609_4 	ReceivedUnicastPackets 	0
scalar MyScenario.node[10].nic.mac1609_4 	ReceivedBroadcasts 	1
scalar MyScenario.node[10].nic.mac1609_4 	SentPackets 	1
scalar MyScenario.node[10].nic.mac1609_4 	SNIRLostPackets 	5
scalar MyScenario.node[10].nic.mac1609_4 	RXTXLostPackets 	1
scalar MyScenario.node[10].nic.mac1609_4 	TotalLostPackets 	6
scalar MyScenario.node[10].nic.mac1609_4 	DroppedPacketsInMac 	0
scalar MyScenario.node[10].nic.mac1609_4 	TooLittleTime 	0
scalar MyScenario.node[10].nic.mac1609_4 	TimesIntoBackoff 	1
scalar MyScenario.node[10].nic.mac1609_4 	SlotsBackoff 	0
scalar MyScenario.node[10].nic.mac1609_4 	NumInternalContention 	0
scalar MyScenario.node[10].nic.mac1609_4 	totalBusyTime 	0.001161
scalar MyScenario.node[10].veinsmobility 	startTime 	1
scalar MyScenario.node[10].veinsmobility 	totalTime 	67
scalar MyScenario.node[10].veinsmobility 	stopTime 	69
scalar MyScenario.node[10].veinsmobility 	minSpeed 	2.1243424981367
scalar MyScenario.node[10].veinsmobility 	maxSpeed 	13.899101241562
scalar MyScenario.node[10].veinsmobility 	totalDistance 	761.16015782918
scalar MyScenario.node[10].veinsmobility 	totalCO2Emission 	233.19247517462
scalar MyScenario.node[59].appl 	generatedWSMs 	1
scalar MyScenario.node[59].appl 	receivedWSMs 	19
scalar MyScenario.node[59].appl 	generatedBSMs 	0
scalar MyScenario.node[59].appl 	receivedBSMs 	0
scalar MyScenario.node[59].appl 	generatedWSAs 	0
scalar MyScenario.node[59].appl 	receivedWSAs 	0
scalar MyScenario.node[59].nic.phy80211p 	busyTime 	9.0782608695652e-05
scalar MyScenario.node[59].nic.mac1609_4 	ReceivedUnicastPackets 	0
scalar MyScenario.node[59].nic.mac1609_4 	ReceivedBroadcasts 	19
scalar MyScenario.node[59].nic.mac1609_4 	SentPackets 	1
scalar MyScenario.node[59].nic.mac1609_4 	SNIRLostPackets 	8
scalar MyScenario.node[59].nic.mac1609_4 	RXTXLostPackets 	0
scalar MyScenario.node[59].nic.mac1609_4 	TotalLostPackets 	8
scalar MyScenario.node[59].nic.mac1609_4 	DroppedPacketsInMac 	0
scalar MyScenario.node[59].nic.mac1609_4 	TooLittleTime 	0
scalar MyScenario.node[59].nic.mac1609_4 	TimesIntoBackoff 	1
scalar MyScenario.node[59].nic.mac1609_4 	SlotsBackoff 	1
scalar MyScenario.node[59].nic.mac1609_4 	NumInternalContention 	0
scalar MyScenario.node[59].nic.mac1609_4 	totalBusyTime 	0.005569
scalar MyScenario.node[59].veinsmobility 	startTime 	1
scalar MyScenario.node[59].veinsmobility 	totalTime 	68
scalar MyScenario.node[59].veinsmobility 	stopTime 	70
scalar MyScenario.node[59].veinsmobility 	minSpeed 	0.074223907860695
scalar MyScenario.node[59].veinsmobility 	maxSpeed 	13.899891251372
scalar MyScenario.node[59].veinsmobility 	totalDistance 	777.35529465143
scalar MyScenario.node[59].veinsmobility 	totalCO2Emission 	182.09443276756
scalar MyScenario.node[76].appl 	generatedWSMs 	1
scalar MyScenario.node[76].appl 	receivedWSMs 	6
scalar MyScenario.node[76].appl 	generatedBSMs 	0
scalar MyScenario.node[76].appl 	receivedBSMs 	0
scalar MyScenario.node[76].appl 	generatedWSAs 	0
scalar MyScenario.node[76].appl 	receivedWSAs 	0
scalar MyScenario.node[76].nic.phy80211p 	busyTime 	7.0608695652174e-05
scalar MyScenario.node[76].nic.mac1609_4 	ReceivedUnicastPackets 	0
scalar MyScenario.node[76].nic.mac1609_4 	ReceivedBroadcasts 	6
scalar MyScenario.node[76].nic.mac1609_4 	SentPackets 	1
scalar MyScenario.node[76].nic.mac1609_4 	SNIRLostPackets 	15
scalar MyScenario.node[76].nic.mac1609_4 	RXTXLostPackets 	4
scalar MyScenario.node[76].nic.mac1609_4 	TotalLostPackets 	19
scalar MyScenario.node[76].nic.mac1609_4 	DroppedPacketsInMac 	0
scalar MyScenario.node[76].nic.mac1609_4 	TooLittleTime 	0
scalar MyScenario.node[76].nic.mac1609_4 	TimesIntoBackoff 	1
scalar MyScenario.node[76].nic.mac1609_4 	SlotsBackoff 	3
scalar MyScenario.node[76].nic.mac1609_4 	NumInternalContention 	0
scalar MyScenario.node[76].nic.mac1609_4 	totalBusyTime 	0.002553073316
scalar MyScenario.node[76].veinsmobility 	startTime 	1
[...]
scalar MyScenario.node[98].nic.mac1609_4 	ReceivedUnicastPackets 	0
scalar MyScenario.node[98].nic.mac1609_4 	ReceivedBroadcasts 	0
scalar MyScenario.node[98].nic.mac1609_4 	SentPackets 	0
scalar MyScenario.node[98].nic.mac1609_4 	SNIRLostPackets 	2
scalar MyScenario.node[98].nic.mac1609_4 	RXTXLostPackets 	0
scalar MyScenario.node[98].nic.mac1609_4 	TotalLostPackets 	2
scalar MyScenario.node[98].nic.mac1609_4 	DroppedPacketsInMac 	0
scalar MyScenario.node[98].nic.mac1609_4 	TooLittleTime 	0
scalar MyScenario.node[98].nic.mac1609_4 	TimesIntoBackoff 	0
scalar MyScenario.node[98].nic.mac1609_4 	SlotsBackoff 	0
scalar MyScenario.node[98].nic.mac1609_4 	NumInternalContention 	0
scalar MyScenario.node[98].nic.mac1609_4 	totalBusyTime 	0.000464
scalar MyScenario.node[98].veinsmobility 	startTime 	4
scalar MyScenario.node[98].veinsmobility 	totalTime 	102
scalar MyScenario.node[98].veinsmobility 	stopTime 	107
scalar MyScenario.node[98].veinsmobility 	minSpeed 	0.60929019906037
scalar MyScenario.node[98].veinsmobility 	maxSpeed 	13.844491544738
scalar MyScenario.node[98].veinsmobility 	totalDistance 	1163.0107303464
scalar MyScenario.node[98].veinsmobility 	totalCO2Emission 	311.14205798061
scalar MyScenario.node[97].appl 	generatedWSMs 	1
scalar MyScenario.node[97].appl 	receivedWSMs 	1
scalar MyScenario.node[97].appl 	generatedBSMs 	0
scalar MyScenario.node[97].appl 	receivedBSMs 	0
scalar MyScenario.node[97].appl 	generatedWSAs 	0
scalar MyScenario.node[97].appl 	receivedWSAs 	0
scalar MyScenario.node[97].nic.phy80211p 	busyTime 	4.2962962962963e-06
scalar MyScenario.node[97].nic.mac1609_4 	ReceivedUnicastPackets 	0
scalar MyScenario.node[97].nic.mac1609_4 	ReceivedBroadcasts 	1
scalar MyScenario.node[97].nic.mac1609_4 	SentPackets 	1
scalar MyScenario.node[97].nic.mac1609_4 	SNIRLostPackets 	1
scalar MyScenario.node[97].nic.mac1609_4 	RXTXLostPackets 	1
scalar MyScenario.node[97].nic.mac1609_4 	TotalLostPackets 	2
scalar MyScenario.node[97].nic.mac1609_4 	DroppedPacketsInMac 	0
scalar MyScenario.node[97].nic.mac1609_4 	TooLittleTime 	0
scalar MyScenario.node[97].nic.mac1609_4 	TimesIntoBackoff 	1
scalar MyScenario.node[97].nic.mac1609_4 	SlotsBackoff 	3
scalar MyScenario.node[97].nic.mac1609_4 	NumInternalContention 	0
scalar MyScenario.node[97].nic.mac1609_4 	totalBusyTime 	0.000697
scalar MyScenario.node[97].veinsmobility 	startTime 	4
scalar MyScenario.node[97].veinsmobility 	totalTime 	107
scalar MyScenario.node[97].veinsmobility 	stopTime 	112
scalar MyScenario.node[97].veinsmobility 	minSpeed 	0.00021962156887685
scalar MyScenario.node[97].veinsmobility 	maxSpeed 	13.896946968068
scalar MyScenario.node[97].veinsmobility 	totalDistance 	974.89545996932
scalar MyScenario.node[97].veinsmobility 	totalCO2Emission 	328.73483120399
scalar MyScenario.node[5].appl 	generatedWSMs 	1
scalar MyScenario.node[5].appl 	receivedWSMs 	14
scalar MyScenario.node[5].appl 	generatedBSMs 	0
scalar MyScenario.node[5].appl 	receivedBSMs 	0
scalar MyScenario.node[5].appl 	generatedWSAs 	0
scalar MyScenario.node[5].appl 	receivedWSAs 	0
scalar MyScenario.node[5].nic.phy80211p 	busyTime 	5.2252252252252e-05
scalar MyScenario.node[5].nic.mac1609_4 	ReceivedUnicastPackets 	0
scalar MyScenario.node[5].nic.mac1609_4 	ReceivedBroadcasts 	14
scalar MyScenario.node[5].nic.mac1609_4 	SentPackets 	1
scalar MyScenario.node[5].nic.mac1609_4 	SNIRLostPackets 	11
scalar MyScenario.node[5].nic.mac1609_4 	RXTXLostPackets 	7
scalar MyScenario.node[5].nic.mac1609_4 	TotalLostPackets 	18
scalar MyScenario.node[5].nic.mac1609_4 	DroppedPacketsInMac 	0
scalar MyScenario.node[5].nic.mac1609_4 	TooLittleTime 	0
scalar MyScenario.node[5].nic.mac1609_4 	TimesIntoBackoff 	1
scalar MyScenario.node[5].nic.mac1609_4 	SlotsBackoff 	3
scalar MyScenario.node[5].nic.mac1609_4 	NumInternalContention 	0
scalar MyScenario.node[5].nic.mac1609_4 	totalBusyTime 	0.004641018722
scalar MyScenario.node[5].veinsmobility 	startTime 	1
scalar MyScenario.node[5].veinsmobility 	totalTime 	110
scalar MyScenario.node[5].veinsmobility 	stopTime 	112
scalar MyScenario.node[5].veinsmobility 	minSpeed 	2.322599040065
scalar MyScenario.node[5].veinsmobility 	maxSpeed 	13.896667653904
scalar MyScenario.node[5].veinsmobility 	totalDistance 	1373.5441806517
scalar MyScenario.node[5].veinsmobility 	totalCO2Emission 	301.81366617373
scalar MyScenario.node[18].appl 	generatedWSMs 	1
scalar MyScenario.node[18].appl 	receivedWSMs 	3
scalar MyScenario.node[18].appl 	generatedBSMs 	0
scalar MyScenario.node[18].appl 	receivedBSMs 	0
scalar MyScenario.node[18].appl 	generatedWSAs 	0
scalar MyScenario.node[18].appl 	receivedWSAs 	0
scalar MyScenario.node[18].nic.phy80211p 	busyTime 	1.45e-05
scalar MyScenario.node[18].nic.mac1609_4 	ReceivedUnicastPackets 	0
scalar MyScenario.node[18].nic.mac1609_4 	ReceivedBroadcasts 	3
scalar MyScenario.node[18].nic.mac1609_4 	SentPackets 	1
scalar MyScenario.node[18].nic.mac1609_4 	SNIRLostPackets 	4
scalar MyScenario.node[18].nic.mac1609_4 	RXTXLostPackets 	0
scalar MyScenario.node[18].nic.mac1609_4 	TotalLostPackets 	4
scalar MyScenario.node[18].nic.mac1609_4 	DroppedPacketsInMac 	0
scalar MyScenario.node[18].nic.mac1609_4 	TooLittleTime 	0
scalar MyScenario.node[18].nic.mac1609_4 	TimesIntoBackoff 	1
scalar MyScenario.node[18].nic.mac1609_4 	SlotsBackoff 	1
scalar MyScenario.node[18].nic.mac1609_4 	NumInternalContention 	0
scalar MyScenario.node[18].nic.mac1609_4 	totalBusyTime 	0.001161
scalar MyScenario.node[18].veinsmobility 	startTime 	1
scalar MyScenario.node[18].veinsmobility 	totalTime 	111
scalar MyScenario.node[18].veinsmobility 	stopTime 	113
scalar MyScenario.node[18].veinsmobility 	minSpeed 	2.0366551878164
scalar MyScenario.node[18].veinsmobility 	maxSpeed 	13.876557333441
scalar MyScenario.node[18].veinsmobility 	totalDistance 	1274.7382439113
scalar MyScenario.node[18].veinsmobility 	totalCO2Emission 	371.3615587543
scalar MyScenario.node[2].appl 	generatedWSMs 	1
scalar MyScenario.node[2].appl 	receivedWSMs 	2
scalar MyScenario.node[2].appl 	generatedBSMs 	0
scalar MyScenario.node[2].appl 	receivedBSMs 	0
scalar MyScenario.node[2].appl 	generatedWSAs 	0
scalar MyScenario.node[2].appl 	receivedWSAs 	0
scalar MyScenario.node[2].nic.phy80211p 	busyTime 	6.0521739130435e-06
scalar MyScenario.node[2].nic.mac1609_4 	ReceivedUnicastPackets 	0
scalar MyScenario.node[2].nic.mac1609_4 	ReceivedBroadcasts 	2
scalar MyScenario.node[2].nic.mac1609_4 	SentPackets 	1
scalar MyScenario.node[2].nic.mac1609_4 	SNIRLostPackets 	1
scalar MyScenario.node[2].nic.mac1609_4 	RXTXLostPackets 	3
scalar MyScenario.node[2].nic.mac1609_4 	TotalLostPackets 	4
scalar MyScenario.node[2].nic.mac1609_4 	DroppedPacketsInMac 	0
scalar MyScenario.node[2].nic.mac1609_4 	TooLittleTime 	0
scalar MyScenario.node[2].nic.mac1609_4 	TimesIntoBackoff 	1
scalar MyScenario.node[2].nic.mac1609_4 	SlotsBackoff 	1
scalar MyScenario.node[2].nic.mac1609_4 	NumInternalContention 	0
scalar MyScenario.node[2].nic.mac1609_4 	totalBusyTime 	0.000929
scalar MyScenario.node[2].veinsmobility 	startTime 	1
scalar MyScenario.node[2].veinsmobility 	totalTime 	114
scalar MyScenario.node[2].veinsmobility 	stopTime 	116
scalar MyScenario.node[2].veinsmobility 	minSpeed 	2.0031791317277
scalar MyScenario.node[2].veinsmobility 	maxSpeed 	13.871642894368
scalar MyScenario.node[2].veinsmobility 	totalDistance 	1275.472454931
scalar MyScenario.node[2].veinsmobility 	totalCO2Emission 	400.2458217825
scalar MyScenario.node[99].appl 	generatedWSMs 	1
scalar MyScenario.node[99].appl 	receivedWSMs 	11
scalar MyScenario.node[99].appl 	generatedBSMs 	0
scalar MyScenario.node[99].appl 	receivedBSMs 	0
scalar MyScenario.node[99].appl 	generatedWSAs 	0
scalar MyScenario.node[99].appl 	receivedWSAs 	0
scalar MyScenario.node[99].nic.phy80211p 	busyTime 	2.32e-05
scalar MyScenario.node[99].nic.mac1609_4 	ReceivedUnicastPackets 	0
scalar MyScenario.node[99].nic.mac1609_4 	ReceivedBroadcasts 	11
scalar MyScenario.node[99].nic.mac1609_4 	SentPackets 	1
scalar MyScenario.node[99].nic.mac1609_4 	SNIRLostPackets 	0
scalar MyScenario.node[99].nic.mac1609_4 	RXTXLostPackets 	4
scalar MyScenario.node[99].nic.mac1609_4 	TotalLostPackets 	4
scalar MyScenario.node[99].nic.mac1609_4 	DroppedPacketsInMac 	0
scalar MyScenario.node[99].nic.mac1609_4 	TooLittleTime 	0
scalar MyScenario.node[99].nic.mac1609_4 	TimesIntoBackoff 	1
scalar MyScenario.node[99].nic.mac1609_4 	SlotsBackoff 	3
scalar MyScenario.node[99].nic.mac1609_4 	NumInternalContention 	0
scalar MyScenario.node[99].nic.mac1609_4 	totalBusyTime 	0.002785
scalar MyScenario.node[99].veinsmobility 	startTime 	7
scalar MyScenario.node[99].veinsmobility 	totalTime 	109
scalar MyScenario.node[99].veinsmobility 	stopTime 	117
scalar MyScenario.node[99].veinsmobility 	minSpeed 	2.4621230144054
scalar MyScenario.node[99].veinsmobility 	maxSpeed 	13.859778357204
scalar MyScenario.node[99].veinsmobility 	totalDistance 	1162.2227890811
scalar MyScenario.node[99].veinsmobility 	totalCO2Emission 	369.2743367741
scalar MyScenario.node[1].appl 	generatedWSMs 	1
scalar MyScenario.node[1].appl 	receivedWSMs 	7
scalar MyScenario.node[1].appl 	generatedBSMs 	0
scalar MyScenario.node[1].appl 	receivedBSMs 	0
scalar MyScenario.node[1].appl 	generatedWSAs 	0
scalar MyScenario.node[1].appl 	receivedWSAs 	0
scalar MyScenario.node[1].nic.phy80211p 	busyTime 	2.1811965811966e-05
scalar MyScenario.node[1].nic.mac1609_4 	ReceivedUnicastPackets 	0
scalar MyScenario.node[1].nic.mac1609_4 	ReceivedBroadcasts 	7
scalar MyScenario.node[1].nic.mac1609_4 	SentPackets 	1
scalar MyScenario.node[1].nic.mac1609_4 	SNIRLostPackets 	4
scalar MyScenario.node[1].nic.mac1609_4 	RXTXLostPackets 	8
scalar MyScenario.node[1].nic.mac1609_4 	TotalLostPackets 	12
scalar MyScenario.node[1].nic.mac1609_4 	DroppedPacketsInMac 	0
scalar MyScenario.node[1].nic.mac1609_4 	TooLittleTime 	0
scalar MyScenario.node[1].nic.mac1609_4 	TimesIntoBackoff 	1
scalar MyScenario.node[1].nic.mac1609_4 	SlotsBackoff 	2
scalar MyScenario.node[1].nic.mac1609_4 	NumInternalContention 	0
scalar MyScenario.node[1].nic.mac1609_4 	totalBusyTime 	0.002321
scalar MyScenario.node[1].veinsmobility 	startTime 	1
scalar MyScenario.node[1].veinsmobility 	totalTime 	116
scalar MyScenario.node[1].veinsmobility 	stopTime 	118
scalar MyScenario.node[1].veinsmobility 	minSpeed 	1.3633771491237
scalar MyScenario.node[1].veinsmobility 	maxSpeed 	13.897533478355
scalar MyScenario.node[1].veinsmobility 	totalDistance 	1368.2381438835
scalar MyScenario.node[1].veinsmobility 	totalCO2Emission 	371.25439328545
scalar MyScenario.node[61].appl 	generatedWSMs 	1
scalar MyScenario.node[61].appl 	receivedWSMs 	14
scalar MyScenario.node[61].appl 	generatedBSMs 	0
scalar MyScenario.node[61].appl 	receivedBSMs 	0
scalar MyScenario.node[61].appl 	generatedWSAs 	0
scalar MyScenario.node[61].appl 	receivedWSAs 	0
scalar MyScenario.node[61].nic.phy80211p 	busyTime 	5.5050847457627e-05
scalar MyScenario.node[61].nic.mac1609_4 	ReceivedUnicastPackets 	0
scalar MyScenario.node[61].nic.mac1609_4 	ReceivedBroadcasts 	14
scalar MyScenario.node[61].nic.mac1609_4 	SentPackets 	1
scalar MyScenario.node[61].nic.mac1609_4 	SNIRLostPackets 	14
scalar MyScenario.node[61].nic.mac1609_4 	RXTXLostPackets 	6
scalar MyScenario.node[61].nic.mac1609_4 	TotalLostPackets 	20
scalar MyScenario.node[61].nic.mac1609_4 	DroppedPacketsInMac 	0
scalar MyScenario.node[61].nic.mac1609_4 	TooLittleTime 	0
scalar MyScenario.node[61].nic.mac1609_4 	TimesIntoBackoff 	1
scalar MyScenario.node[61].nic.mac1609_4 	SlotsBackoff 	0
scalar MyScenario.node[61].nic.mac1609_4 	NumInternalContention 	0
scalar MyScenario.node[61].nic.mac1609_4 	totalBusyTime 	0.004409057732
scalar MyScenario.node[61].veinsmobility 	startTime 	1
scalar MyScenario.node[61].veinsmobility 	totalTime 	117
scalar MyScenario.node[61].veinsmobility 	stopTime 	119
scalar MyScenario.node[61].veinsmobility 	minSpeed 	1.2198860989264e-08
scalar MyScenario.node[61].veinsmobility 	maxSpeed 	13.828979656822
scalar MyScenario.node[61].veinsmobility 	totalDistance 	1063.3908793101
scalar MyScenario.node[61].veinsmobility 	totalCO2Emission 	371.97471443745
scalar MyScenario.node[92].appl 	generatedWSMs 	1
scalar MyScenario.node[92].appl 	receivedWSMs 	17
scalar MyScenario.node[92].appl 	generatedBSMs 	0
scalar MyScenario.node[92].appl 	receivedBSMs 	0
scalar MyScenario.node[92].appl 	generatedWSAs 	0
scalar MyScenario.node[92].appl 	receivedWSAs 	0
scalar MyScenario.node[92].nic.phy80211p 	busyTime 	3.965811965812e-05
scalar MyScenario.node[92].nic.mac1609_4 	ReceivedUnicastPackets 	0
scalar MyScenario.node[92].nic.mac1609_4 	ReceivedBroadcasts 	17
scalar MyScenario.node[92].nic.mac1609_4 	SentPackets 	1
scalar MyScenario.node[92].nic.mac1609_4 	SNIRLostPackets 	3
scalar MyScenario.node[92].nic.mac1609_4 	RXTXLostPackets 	7
scalar MyScenario.node[92].nic.mac1609_4 	TotalLostPackets 	10
scalar MyScenario.node[92].nic.mac1609_4 	DroppedPacketsInMac 	0
scalar MyScenario.node[92].nic.mac1609_4 	TooLittleTime 	0
scalar MyScenario.node[92].nic.mac1609_4 	TimesIntoBackoff 	1
scalar MyScenario.node[92].nic.mac1609_4 	SlotsBackoff 	2
scalar MyScenario.node[92].nic.mac1609_4 	NumInternalContention 	0
scalar MyScenario.node[92].nic.mac1609_4 	totalBusyTime 	0.004641069303
scalar MyScenario.node[92].veinsmobility 	startTime 	4
scalar MyScenario.node[92].veinsmobility 	totalTime 	116
scalar MyScenario.node[92].veinsmobility 	stopTime 	121
scalar MyScenario.node[92].veinsmobility 	minSpeed 	0.0058587141789711
scalar MyScenario.node[92].veinsmobility 	maxSpeed 	13.888345163059
scalar MyScenario.node[92].veinsmobility 	totalDistance 	1176.1325709761
scalar MyScenario.node[92].veinsmobility 	totalCO2Emission 	396.04108258345
scalar MyScenario.node[41].appl 	generatedWSMs 	1
scalar MyScenario.node[41].appl 	receivedWSMs 	2
scalar MyScenario.node[41].appl 	generatedBSMs 	0
scalar MyScenario.node[41].appl 	receivedBSMs 	0
scalar MyScenario.node[41].appl 	generatedWSAs 	0
scalar MyScenario.node[41].appl 	receivedWSAs 	0
scalar MyScenario.node[41].nic.phy80211p 	busyTime 	7.6694214876033e-06
scalar MyScenario.node[41].nic.mac1609_4 	ReceivedUnicastPackets 	0
scalar MyScenario.node[41].nic.mac1609_4 	ReceivedBroadcasts 	2
scalar MyScenario.node[41].nic.mac1609_4 	SentPackets 	1
scalar MyScenario.node[41].nic.mac1609_4 	SNIRLostPackets 	2
scalar MyScenario.node[41].nic.mac1609_4 	RXTXLostPackets 	0
scalar MyScenario.node[41].nic.mac1609_4 	TotalLostPackets 	2
scalar MyScenario.node[41].nic.mac1609_4 	DroppedPacketsInMac 	0
scalar MyScenario.node[41].nic.mac1609_4 	TooLittleTime 	0
scalar MyScenario.node[41].nic.mac1609_4 	TimesIntoBackoff 	1
scalar MyScenario.node[41].nic.mac1609_4 	SlotsBackoff 	2
scalar MyScenario.node[41].nic.mac1609_4 	NumInternalContention 	0
scalar MyScenario.node[41].nic.mac1609_4 	totalBusyTime 	0.000697
scalar MyScenario.node[41].veinsmobility 	startTime 	1
scalar MyScenario.node[41].veinsmobility 	totalTime 	120
scalar MyScenario.node[41].veinsmobility 	stopTime 	122
scalar MyScenario.node[41].veinsmobility 	minSpeed 	0.023648692810051
scalar MyScenario.node[41].veinsmobility 	maxSpeed 	13.884999011434
scalar MyScenario.node[41].veinsmobility 	totalDistance 	1263.8085591192
scalar MyScenario.node[41].veinsmobility 	totalCO2Emission 	405.3113853322
scalar MyScenario.node[70].appl 	generatedWSMs 	0
scalar MyScenario.node[70].appl 	receivedWSMs 	0
scalar MyScenario.node[70].appl 	generatedBSMs 	0
scalar MyScenario.node[70].appl 	receivedBSMs 	0
scalar MyScenario.node[70].appl 	generatedWSAs 	0
scalar MyScenario.node[70].appl 	receivedWSAs 	0
scalar MyScenario.node[70].nic.phy80211p 	busyTime 	0
scalar MyScenario.node[70].nic.mac1609_4 	ReceivedUnicastPackets 	0
scalar MyScenario.node[70].nic.mac1609_4 	ReceivedBroadcasts 	0
scalar MyScenario.node[70].nic.mac1609_4 	SentPackets 	0
scalar MyScenario.node[70].nic.mac1609_4 	SNIRLostPackets 	0
scalar MyScenario.node[70].nic.mac1609_4 	RXTXLostPackets 	0
scalar MyScenario.node[70].nic.mac1609_4 	TotalLostPackets 	0
scalar MyScenario.node[70].nic.mac1609_4 	DroppedPacketsInMac 	0
scalar MyScenario.node[70].nic.mac1609_4 	TooLittleTime 	0
scalar MyScenario.node[70].nic.mac1609_4 	TimesIntoBackoff 	0
scalar MyScenario.node[70].nic.mac1609_4 	SlotsBackoff 	0
scalar MyScenario.node[70].nic.mac1609_4 	NumInternalContention 	0
scalar MyScenario.node[70].nic.mac1609_4 	totalBusyTime 	0
scalar MyScenario.node[70].veinsmobility 	startTime 	1
scalar MyScenario.node[70].veinsmobility 	totalTime 	122
scalar MyScenario.node[70].veinsmobility 	stopTime 	124
scalar MyScenario.node[70].veinsmobility 	minSpeed 	1.8555870619835
scalar MyScenario.node[70].veinsmobility 	maxSpeed 	13.895682558161
scalar MyScenario.node[70].veinsmobility 	totalDistance 	1556.9016245989
scalar MyScenario.node[70].veinsmobility 	totalCO2Emission 	312.23873830351
scalar MyScenario.node[30].appl 	generatedWSMs 	0
scalar MyScenario.node[30].appl 	receivedWSMs 	0
scalar MyScenario.node[30].appl 	generatedBSMs 	0
scalar MyScenario.node[30].appl 	receivedBSMs 	0
scalar MyScenario.node[30].appl 	generatedWSAs 	0
scalar MyScenario.node[30].appl 	receivedWSAs 	0
scalar MyScenario.node[30].nic.phy80211p 	busyTime 	1.6811594202899e-06
scalar MyScenario.node[30].nic.mac1609_4 	ReceivedUnicastPackets 	0
scalar MyScenario.node[30].nic.mac1609_4 	ReceivedBroadcasts 	0
scalar MyScenario.node[30].nic.mac1609_4 	SentPackets 	0
scalar MyScenario.node[30].nic.mac1609_4 	SNIRLostPackets 	1
scalar MyScenario.node[30].nic.mac1609_4 	RXTXLostPackets 	0
scalar MyScenario.node[30].nic.mac1609_4 	TotalLostPackets 	1
scalar MyScenario.node[30].nic.mac1609_4 	DroppedPacketsInMac 	0
scalar MyScenario.node[30].nic.mac1609_4 	TooLittleTime 	0
scalar MyScenario.node[30].nic.mac1609_4 	TimesIntoBackoff 	0
scalar MyScenario.node[30].nic.mac1609_4 	SlotsBackoff 	0
scalar MyScenario.node[30].nic.mac1609_4 	NumInternalContention 	0
scalar MyScenario.node[30].nic.mac1609_4 	totalBusyTime 	0.000232
scalar MyScenario.node[30].veinsmobility 	startTime 	1
scalar MyScenario.node[30].veinsmobility 	totalTime 	137
scalar MyScenario.node[30].veinsmobility 	stopTime 	139
scalar MyScenario.node[30].veinsmobility 	minSpeed 	0.20305827471884
scalar MyScenario.node[30].veinsmobility 	maxSpeed 	13.865634783753
scalar MyScenario.node[30].veinsmobility 	totalDistance 	1576.5954031707
scalar MyScenario.node[30].veinsmobility 	totalCO2Emission 	414.52932772504
scalar MyScenario.node[17].appl 	generatedWSMs 	1
scalar MyScenario.node[17].appl 	receivedWSMs 	1
scalar MyScenario.node[17].appl 	generatedBSMs 	0
scalar MyScenario.node[17].appl 	receivedBSMs 	0
scalar MyScenario.node[17].appl 	generatedWSAs 	0
scalar MyScenario.node[17].appl 	receivedWSAs 	0
scalar MyScenario.node[17].nic.phy80211p 	busyTime 	3.3142857142857e-06
scalar MyScenario.node[17].nic.mac1609_4 	ReceivedUnicastPackets 	0
scalar MyScenario.node[17].nic.mac1609_4 	ReceivedBroadcasts 	1
scalar MyScenario.node[17].nic.mac1609_4 	SentPackets 	1
scalar MyScenario.node[17].nic.mac1609_4 	SNIRLostPackets 	1
scalar MyScenario.node[17].nic.mac1609_4 	RXTXLostPackets 	1
scalar MyScenario.node[17].nic.mac1609_4 	TotalLostPackets 	2
scalar MyScenario.node[17].nic.mac1609_4 	DroppedPacketsInMac 	0
scalar MyScenario.node[17].nic.mac1609_4 	TooLittleTime 	0
scalar MyScenario.node[17].nic.mac1609_4 	TimesIntoBackoff 	1
scalar MyScenario.node[17].nic.mac1609_4 	SlotsBackoff 	1
scalar MyScenario.node[17].nic.mac1609_4 	NumInternalContention 	0
scalar MyScenario.node[17].nic.mac1609_4 	totalBusyTime 	0.000697
scalar MyScenario.node[17].veinsmobility 	startTime 	1
scalar MyScenario.node[17].veinsmobility 	totalTime 	139
scalar MyScenario.node[17].veinsmobility 	stopTime 	141
scalar MyScenario.node[17].veinsmobility 	minSpeed 	1.5107066108147
scalar MyScenario.node[17].veinsmobility 	maxSpeed 	13.896302865376
scalar MyScenario.node[17].veinsmobility 	totalDistance 	1562.3320592702
scalar MyScenario.node[17].veinsmobility 	totalCO2Emission 	453.48501058268
