version 2
run General-2-20170829-17:38:44-8100
attr configname General
attr datetime 20170829-17:38:44
attr density 100
attr experiment General
attr inifile omnetpp.ini
attr iterationvars $density=100
attr iterationvars2 "$density=100, $repetition=2"
attr measurement $density=100
attr network com.liborio.pi.MyScenario
attr processid 8100
attr repetition 2
attr replication #2
attr resultdir results
attr runnumber 2
attr seedset 2
param **.coreDebug false
param **.debug false
param *.**.nic.mac1609_4.bitrate 6Mbps
param *.**.nic.mac1609_4.txPower 20mW
param *.**.nic.mac1609_4.useServiceChannel true
param *.**.nic.phy80211p.analogueModels "xmldoc(\"config.xml\")"
param *.**.nic.phy80211p.antenna "xmldoc(\"antenna.xml\", \"/root/Antenna[@id='monopole']\")"
param *.**.nic.phy80211p.decider "xmldoc(\"config.xml\")"
param *.**.nic.phy80211p.sensitivity -84.39dBm
param *.**.nic.phy80211p.thermalNoise -110dBm
param *.**.nic.phy80211p.usePropagationDelay true
param *.**.nic.phy80211p.useThermalNoise true
param *.annotations.draw true
param *.connectionManager.drawMaxIntfDist false
param *.connectionManager.maxInterfDist 2600m
param *.connectionManager.sendDirect true
param *.manager.autoShutdown true
param *.manager.host "\"localhost\""
param *.manager.launchConfig "xmldoc(string(${density = 100, 200, 300, 400})+\"_\"+ string(${repetition})+\".launchd.xml\")"
param *.manager.port 9999
param *.manager.updateInterval 1s
param *.node[*].appl.beaconInterval 1s
param *.node[*].appl.dataOnSch true
param *.node[*].appl.headerLength "80 bit"
param *.node[*].appl.isSource false
param *.node[*].appl.numMsgs 100
param *.node[*].appl.sendBeacons false
param *.node[*].appl.stopTrafficTime 130s
param *.node[*].appl.wsmInterval 3s
param *.node[*].applType "\"Flooding\""
param *.node[*].veinsmobility.x 0
param *.node[*].veinsmobility.y 0
param *.node[*].veinsmobility.z 1.895
param *.node[*].veinsmobilityType.debug true
param *.node[0].appl.isSource true
param *.playgroundSizeX 2500m
param *.playgroundSizeY 2500m
param *.playgroundSizeZ 50m

scalar . 	density 	100
scalar MyScenario.node[31].appl 	generatedWSMs 	0
scalar MyScenario.node[31].appl 	receivedWSMs 	0
scalar MyScenario.node[31].appl 	generatedBSMs 	0
scalar MyScenario.node[31].appl 	receivedBSMs 	0
scalar MyScenario.node[31].appl 	generatedWSAs 	0
scalar MyScenario.node[31].appl 	receivedWSAs 	0
scalar MyScenario.node[31].nic.phy80211p 	busyTime 	0
scalar MyScenario.node[31].nic.mac1609_4 	ReceivedUnicastPackets 	0
scalar MyScenario.node[31].nic.mac1609_4 	ReceivedBroadcasts 	0
scalar MyScenario.node[31].nic.mac1609_4 	SentPackets 	0
scalar MyScenario.node[31].nic.mac1609_4 	SNIRLostPackets 	0
scalar MyScenario.node[31].nic.mac1609_4 	RXTXLostPackets 	0
scalar MyScenario.node[31].nic.mac1609_4 	TotalLostPackets 	0
scalar MyScenario.node[31].nic.mac1609_4 	DroppedPacketsInMac 	0
scalar MyScenario.node[31].nic.mac1609_4 	TooLittleTime 	0
scalar MyScenario.node[31].nic.mac1609_4 	TimesIntoBackoff 	0
scalar MyScenario.node[31].nic.mac1609_4 	SlotsBackoff 	0
scalar MyScenario.node[31].nic.mac1609_4 	NumInternalContention 	0
scalar MyScenario.node[31].nic.mac1609_4 	totalBusyTime 	0
scalar MyScenario.node[31].veinsmobility 	startTime 	1
scalar MyScenario.node[31].veinsmobility 	totalTime 	9
scalar MyScenario.node[31].veinsmobility 	stopTime 	11
scalar MyScenario.node[31].veinsmobility 	minSpeed 	2.3116142827086
scalar MyScenario.node[31].veinsmobility 	maxSpeed 	13.503245022288
scalar MyScenario.node[31].veinsmobility 	totalDistance 	77.652755760192
scalar MyScenario.node[31].veinsmobility 	totalCO2Emission 	36.839219186557
scalar MyScenario.node[27].appl 	generatedWSMs 	0
scalar MyScenario.node[27].appl 	receivedWSMs 	0
scalar MyScenario.node[27].appl 	generatedBSMs 	0
scalar MyScenario.node[27].appl 	receivedBSMs 	0
scalar MyScenario.node[27].appl 	generatedWSAs 	0
scalar MyScenario.node[27].appl 	receivedWSAs 	0
scalar MyScenario.node[27].nic.phy80211p 	busyTime 	0
scalar MyScenario.node[27].nic.mac1609_4 	ReceivedUnicastPackets 	0
scalar MyScenario.node[27].nic.mac1609_4 	ReceivedBroadcasts 	0
scalar MyScenario.node[27].nic.mac1609_4 	SentPackets 	0
scalar MyScenario.node[27].nic.mac1609_4 	SNIRLostPackets 	0
scalar MyScenario.node[27].nic.mac1609_4 	RXTXLostPackets 	0
scalar MyScenario.node[27].nic.mac1609_4 	TotalLostPackets 	0
scalar MyScenario.node[27].nic.mac1609_4 	DroppedPacketsInMac 	0
scalar MyScenario.node[27].nic.mac1609_4 	TooLittleTime 	0
scalar MyScenario.node[27].nic.mac1609_4 	TimesIntoBackoff 	0
scalar MyScenario.node[27].nic.mac1609_4 	SlotsBackoff 	0
scalar MyScenario.node[27].nic.mac1609_4 	NumInternalContention 	0
scalar MyScenario.node[27].nic.mac1609_4 	totalBusyTime 	0
scalar MyScenario.node[27].veinsmobility 	startTime 	1
scalar MyScenario.node[27].veinsmobility 	totalTime 	16
scalar MyScenario.node[27].veinsmobility 	stopTime 	18
scalar MyScenario.node[27].veinsmobility 	minSpeed 	2.5151275452692
scalar MyScenario.node[27].veinsmobility 	maxSpeed 	13.80424070484
scalar MyScenario.node[27].veinsmobility 	totalDistance 	179.72946927498
scalar MyScenario.node[27].veinsmobility 	totalCO2Emission 	56.299390734839
scalar MyScenario.node[0].appl 	generatedWSMs 	6
scalar MyScenario.node[0].appl 	receivedWSMs 	3
scalar MyScenario.node[0].appl 	generatedBSMs 	0
scalar MyScenario.node[0].appl 	receivedBSMs 	0
scalar MyScenario.node[0].appl 	generatedWSAs 	0
scalar MyScenario.node[0].appl 	receivedWSAs 	0
scalar MyScenario.node[0].nic.phy80211p 	busyTime 	0.00015011764705882
scalar MyScenario.node[0].nic.mac1609_4 	ReceivedUnicastPackets 	0
scalar MyScenario.node[0].nic.mac1609_4 	ReceivedBroadcasts 	3
scalar MyScenario.node[0].nic.mac1609_4 	SentPackets 	6
scalar MyScenario.node[0].nic.mac1609_4 	SNIRLostPackets 	8
scalar MyScenario.node[0].nic.mac1609_4 	RXTXLostPackets 	0
scalar MyScenario.node[0].nic.mac1609_4 	TotalLostPackets 	8
scalar MyScenario.node[0].nic.mac1609_4 	DroppedPacketsInMac 	0
scalar MyScenario.node[0].nic.mac1609_4 	TooLittleTime 	0
scalar MyScenario.node[0].nic.mac1609_4 	TimesIntoBackoff 	6
scalar MyScenario.node[0].nic.mac1609_4 	SlotsBackoff 	10
scalar MyScenario.node[0].nic.mac1609_4 	NumInternalContention 	0
scalar MyScenario.node[0].nic.mac1609_4 	totalBusyTime 	0.002094
scalar MyScenario.node[0].veinsmobility 	startTime 	1
scalar MyScenario.node[0].veinsmobility 	totalTime 	16
scalar MyScenario.node[0].veinsmobility 	stopTime 	18
scalar MyScenario.node[0].veinsmobility 	minSpeed 	2.3175491042435
scalar MyScenario.node[0].veinsmobility 	maxSpeed 	13.818352927035
scalar MyScenario.node[0].veinsmobility 	totalDistance 	176.94654653105
scalar MyScenario.node[0].veinsmobility 	totalCO2Emission 	55.701257920619
scalar MyScenario.node[95].appl 	generatedWSMs 	0
scalar MyScenario.node[95].appl 	receivedWSMs 	0
scalar MyScenario.node[95].appl 	generatedBSMs 	0
scalar MyScenario.node[95].appl 	receivedBSMs 	0
scalar MyScenario.node[95].appl 	generatedWSAs 	0
scalar MyScenario.node[95].appl 	receivedWSAs 	0
scalar MyScenario.node[95].nic.phy80211p 	busyTime 	0
scalar MyScenario.node[95].nic.mac1609_4 	ReceivedUnicastPackets 	0
scalar MyScenario.node[95].nic.mac1609_4 	ReceivedBroadcasts 	0
scalar MyScenario.node[95].nic.mac1609_4 	SentPackets 	0
scalar MyScenario.node[95].nic.mac1609_4 	SNIRLostPackets 	0
scalar MyScenario.node[95].nic.mac1609_4 	RXTXLostPackets 	0
scalar MyScenario.node[95].nic.mac1609_4 	TotalLostPackets 	0
scalar MyScenario.node[95].nic.mac1609_4 	DroppedPacketsInMac 	0
scalar MyScenario.node[95].nic.mac1609_4 	TooLittleTime 	0
scalar MyScenario.node[95].nic.mac1609_4 	TimesIntoBackoff 	0
scalar MyScenario.node[95].nic.mac1609_4 	SlotsBackoff 	0
scalar MyScenario.node[95].nic.mac1609_4 	NumInternalContention 	0
scalar MyScenario.node[95].nic.mac1609_4 	totalBusyTime 	0
scalar MyScenario.node[95].veinsmobility 	startTime 	4
scalar MyScenario.node[95].veinsmobility 	totalTime 	18
scalar MyScenario.node[95].veinsmobility 	stopTime 	23
scalar MyScenario.node[95].veinsmobility 	minSpeed 	2.5762489532353
scalar MyScenario.node[95].veinsmobility 	maxSpeed 	13.583862784947
scalar MyScenario.node[95].veinsmobility 	totalDistance 	178.29458898159
scalar MyScenario.node[95].veinsmobility 	totalCO2Emission 	72.751624997204
scalar MyScenario.node[33].appl 	generatedWSMs 	1
scalar MyScenario.node[33].appl 	receivedWSMs 	1
scalar MyScenario.node[33].appl 	generatedBSMs 	0
scalar MyScenario.node[33].appl 	receivedBSMs 	0
scalar MyScenario.node[33].appl 	generatedWSAs 	0
scalar MyScenario.node[33].appl 	receivedWSAs 	0
scalar MyScenario.node[33].nic.phy80211p 	busyTime 	8.5925925925926e-06
scalar MyScenario.node[33].nic.mac1609_4 	ReceivedUnicastPackets 	0
scalar MyScenario.node[33].nic.mac1609_4 	ReceivedBroadcasts 	1
scalar MyScenario.node[33].nic.mac1609_4 	SentPackets 	1
scalar MyScenario.node[33].nic.mac1609_4 	SNIRLostPackets 	0
scalar MyScenario.node[33].nic.mac1609_4 	RXTXLostPackets 	2
scalar MyScenario.node[33].nic.mac1609_4 	TotalLostPackets 	2
scalar MyScenario.node[33].nic.mac1609_4 	DroppedPacketsInMac 	0
scalar MyScenario.node[33].nic.mac1609_4 	TooLittleTime 	0
scalar MyScenario.node[33].nic.mac1609_4 	TimesIntoBackoff 	1
scalar MyScenario.node[33].nic.mac1609_4 	SlotsBackoff 	1
scalar MyScenario.node[33].nic.mac1609_4 	NumInternalContention 	0
scalar MyScenario.node[33].nic.mac1609_4 	totalBusyTime 	0.000465
scalar MyScenario.node[33].veinsmobility 	startTime 	1
scalar MyScenario.node[33].veinsmobility 	totalTime 	26
scalar MyScenario.node[33].veinsmobility 	stopTime 	28
scalar MyScenario.node[33].veinsmobility 	minSpeed 	1.8030613981653
scalar MyScenario.node[33].veinsmobility 	maxSpeed 	13.834044989664
scalar MyScenario.node[33].veinsmobility 	totalDistance 	278.42031709918
scalar MyScenario.node[33].veinsmobility 	totalCO2Emission 	94.571537428839
scalar MyScenario.node[23].appl 	generatedWSMs 	0
scalar MyScenario.node[23].appl 	receivedWSMs 	0
scalar MyScenario.node[23].appl 	generatedBSMs 	0
scalar MyScenario.node[23].appl 	receivedBSMs 	0
scalar MyScenario.node[23].appl 	generatedWSAs 	0
scalar MyScenario.node[23].appl 	receivedWSAs 	0
scalar MyScenario.node[23].nic.phy80211p 	busyTime 	0
scalar MyScenario.node[23].nic.mac1609_4 	ReceivedUnicastPackets 	0
scalar MyScenario.node[23].nic.mac1609_4 	ReceivedBroadcasts 	0
scalar MyScenario.node[23].nic.mac1609_4 	SentPackets 	0
scalar MyScenario.node[23].nic.mac1609_4 	SNIRLostPackets 	0
scalar MyScenario.node[23].nic.mac1609_4 	RXTXLostPackets 	0
scalar MyScenario.node[23].nic.mac1609_4 	TotalLostPackets 	0
scalar MyScenario.node[23].nic.mac1609_4 	DroppedPacketsInMac 	0
scalar MyScenario.node[23].nic.mac1609_4 	TooLittleTime 	0
scalar MyScenario.node[23].nic.mac1609_4 	TimesIntoBackoff 	0
scalar MyScenario.node[23].nic.mac1609_4 	SlotsBackoff 	0
scalar MyScenario.node[23].nic.mac1609_4 	NumInternalContention 	0
scalar MyScenario.node[23].nic.mac1609_4 	totalBusyTime 	0
scalar MyScenario.node[23].veinsmobility 	startTime 	1
scalar MyScenario.node[23].veinsmobility 	totalTime 	32
scalar MyScenario.node[23].veinsmobility 	stopTime 	34
scalar MyScenario.node[23].veinsmobility 	minSpeed 	1.79252601685
scalar MyScenario.node[23].veinsmobility 	maxSpeed 	13.797065933561
scalar MyScenario.node[23].veinsmobility 	totalDistance 	366.89893545628
scalar MyScenario.node[23].veinsmobility 	totalCO2Emission 	100.98492151168
scalar MyScenario.node[5].appl 	generatedWSMs 	0
scalar MyScenario.node[5].appl 	receivedWSMs 	0
scalar MyScenario.node[5].appl 	generatedBSMs 	0
scalar MyScenario.node[5].appl 	receivedBSMs 	0
scalar MyScenario.node[5].appl 	generatedWSAs 	0
scalar MyScenario.node[5].appl 	receivedWSAs 	0
scalar MyScenario.node[5].nic.phy80211p 	busyTime 	0
scalar MyScenario.node[5].nic.mac1609_4 	ReceivedUnicastPackets 	0
scalar MyScenario.node[5].nic.mac1609_4 	ReceivedBroadcasts 	0
scalar MyScenario.node[5].nic.mac1609_4 	SentPackets 	0
scalar MyScenario.node[5].nic.mac1609_4 	SNIRLostPackets 	0
scalar MyScenario.node[5].nic.mac1609_4 	RXTXLostPackets 	0
scalar MyScenario.node[5].nic.mac1609_4 	TotalLostPackets 	0
scalar MyScenario.node[5].nic.mac1609_4 	DroppedPacketsInMac 	0
scalar MyScenario.node[5].nic.mac1609_4 	TooLittleTime 	0
scalar MyScenario.node[5].nic.mac1609_4 	TimesIntoBackoff 	0
scalar MyScenario.node[5].nic.mac1609_4 	SlotsBackoff 	0
scalar MyScenario.node[5].nic.mac1609_4 	NumInternalContention 	0
scalar MyScenario.node[5].nic.mac1609_4 	totalBusyTime 	0
scalar MyScenario.node[5].veinsmobility 	startTime 	1
scalar MyScenario.node[5].veinsmobility 	totalTime 	32
scalar MyScenario.node[5].veinsmobility 	stopTime 	34
scalar MyScenario.node[5].veinsmobility 	minSpeed 	1.9574233016931
scalar MyScenario.node[5].veinsmobility 	maxSpeed 	13.896772850887
scalar MyScenario.node[5].veinsmobility 	totalDistance 	378.01968086464
scalar MyScenario.node[5].veinsmobility 	totalCO2Emission 	94.169019247489
scalar MyScenario.node[82].appl 	generatedWSMs 	0
scalar MyScenario.node[82].appl 	receivedWSMs 	0
scalar MyScenario.node[82].appl 	generatedBSMs 	0
scalar MyScenario.node[82].appl 	receivedBSMs 	0
scalar MyScenario.node[82].appl 	generatedWSAs 	0
scalar MyScenario.node[82].appl 	receivedWSAs 	0
scalar MyScenario.node[82].nic.phy80211p 	busyTime 	0
scalar MyScenario.node[82].nic.mac1609_4 	ReceivedUnicastPackets 	0
scalar MyScenario.node[82].nic.mac1609_4 	ReceivedBroadcasts 	0
scalar MyScenario.node[82].nic.mac1609_4 	SentPackets 	0
scalar MyScenario.node[82].nic.mac1609_4 	SNIRLostPackets 	0
scalar MyScenario.node[82].nic.mac1609_4 	RXTXLostPackets 	0
scalar MyScenario.node[82].nic.mac1609_4 	TotalLostPackets 	0
scalar MyScenario.node[82].nic.mac1609_4 	DroppedPacketsInMac 	0
scalar MyScenario.node[82].nic.mac1609_4 	TooLittleTime 	0
scalar MyScenario.node[82].nic.mac1609_4 	TimesIntoBackoff 	0
scalar MyScenario.node[82].nic.mac1609_4 	SlotsBackoff 	0
scalar MyScenario.node[82].nic.mac1609_4 	NumInternalContention 	0
scalar MyScenario.node[82].nic.mac1609_4 	totalBusyTime 	0
scalar MyScenario.node[82].veinsmobility 	startTime 	1
scalar MyScenario.node[82].veinsmobility 	totalTime 	33
scalar MyScenario.node[82].veinsmobility 	stopTime 	35
scalar MyScenario.node[82].veinsmobility 	minSpeed 	2.0704998177476
scalar MyScenario.node[82].veinsmobility 	maxSpeed 	13.80699542521
scalar MyScenario.node[82].veinsmobility 	totalDistance 	368.43383559083
scalar MyScenario.node[82].veinsmobility 	totalCO2Emission 	111.6700376806
scalar MyScenario.node[83].appl 	generatedWSMs 	0
scalar MyScenario.node[83].appl 	receivedWSMs 	0
scalar MyScenario.node[83].appl 	generatedBSMs 	0
scalar MyScenario.node[83].appl 	receivedBSMs 	0
scalar MyScenario.node[83].appl 	generatedWSAs 	0
scalar MyScenario.node[83].appl 	receivedWSAs 	0
scalar MyScenario.node[83].nic.phy80211p 	busyTime 	0
scalar MyScenario.node[83].nic.mac1609_4 	ReceivedUnicastPackets 	0
scalar MyScenario.node[83].nic.mac1609_4 	ReceivedBroadcasts 	0
scalar MyScenario.node[83].nic.mac1609_4 	SentPackets 	0
scalar MyScenario.node[83].nic.mac1609_4 	SNIRLostPackets 	0
scalar MyScenario.node[83].nic.mac1609_4 	RXTXLostPackets 	0
scalar MyScenario.node[83].nic.mac1609_4 	TotalLostPackets 	0
scalar MyScenario.node[83].nic.mac1609_4 	DroppedPacketsInMac 	0
scalar MyScenario.node[83].nic.mac1609_4 	TooLittleTime 	0
scalar MyScenario.node[83].nic.mac1609_4 	TimesIntoBackoff 	0
scalar MyScenario.node[83].nic.mac1609_4 	SlotsBackoff 	0
scalar MyScenario.node[83].nic.mac1609_4 	NumInternalContention 	0
scalar MyScenario.node[83].nic.mac1609_4 	totalBusyTime 	0
scalar MyScenario.node[83].veinsmobility 	startTime 	1
scalar MyScenario.node[83].veinsmobility 	totalTime 	36
scalar MyScenario.node[83].veinsmobility 	stopTime 	38
scalar MyScenario.node[83].veinsmobility 	minSpeed 	1.4898321218323
scalar MyScenario.node[83].veinsmobility 	maxSpeed 	13.875614409777
scalar MyScenario.node[83].veinsmobility 	totalDistance 	382.54108188027
scalar MyScenario.node[83].veinsmobility 	totalCO2Emission 	110.86026945537
scalar MyScenario.node[72].appl 	generatedWSMs 	0
scalar MyScenario.node[72].appl 	receivedWSMs 	0
scalar MyScenario.node[72].appl 	generatedBSMs 	0
scalar MyScenario.node[72].appl 	receivedBSMs 	0
scalar MyScenario.node[72].appl 	generatedWSAs 	0
scalar MyScenario.node[72].appl 	receivedWSAs 	0
scalar MyScenario.node[72].nic.phy80211p 	busyTime 	0
scalar MyScenario.node[72].nic.mac1609_4 	ReceivedUnicastPackets 	0
scalar MyScenario.node[72].nic.mac1609_4 	ReceivedBroadcasts 	0
scalar MyScenario.node[72].nic.mac1609_4 	SentPackets 	0
scalar MyScenario.node[72].nic.mac1609_4 	SNIRLostPackets 	0
scalar MyScenario.node[72].nic.mac1609_4 	RXTXLostPackets 	0
scalar MyScenario.node[72].nic.mac1609_4 	TotalLostPackets 	0
scalar MyScenario.node[72].nic.mac1609_4 	DroppedPacketsInMac 	0
scalar MyScenario.node[72].nic.mac1609_4 	TooLittleTime 	0
scalar MyScenario.node[72].nic.mac1609_4 	TimesIntoBackoff 	0
scalar MyScenario.node[72].nic.mac1609_4 	SlotsBackoff 	0
scalar MyScenario.node[72].nic.mac1609_4 	NumInternalContention 	0
scalar MyScenario.node[72].nic.mac1609_4 	totalBusyTime 	0
scalar MyScenario.node[72].veinsmobility 	startTime 	1
scalar MyScenario.node[72].veinsmobility 	totalTime 	41
scalar MyScenario.node[72].veinsmobility 	stopTime 	43
scalar MyScenario.node[72].veinsmobility 	minSpeed 	1.9121152825421
scalar MyScenario.node[72].veinsmobility 	maxSpeed 	13.890012302413
scalar MyScenario.node[72].veinsmobility 	totalDistance 	467.74261360732
scalar MyScenario.node[72].veinsmobility 	totalCO2Emission 	134.9860856447
scalar MyScenario.node[6].appl 	generatedWSMs 	0
scalar MyScenario.node[6].appl 	receivedWSMs 	0
scalar MyScenario.node[6].appl 	generatedBSMs 	0
scalar MyScenario.node[6].appl 	receivedBSMs 	0
scalar MyScenario.node[6].appl 	generatedWSAs 	0
scalar MyScenario.node[6].appl 	receivedWSAs 	0
scalar MyScenario.node[6].nic.phy80211p 	busyTime 	0
scalar MyScenario.node[6].nic.mac1609_4 	ReceivedUnicastPackets 	0
scalar MyScenario.node[6].nic.mac1609_4 	ReceivedBroadcasts 	0
scalar MyScenario.node[6].nic.mac1609_4 	SentPackets 	0
scalar MyScenario.node[6].nic.mac1609_4 	SNIRLostPackets 	0
scalar MyScenario.node[6].nic.mac1609_4 	RXTXLostPackets 	0
scalar MyScenario.node[6].nic.mac1609_4 	TotalLostPackets 	0
scalar MyScenario.node[6].nic.mac1609_4 	DroppedPacketsInMac 	0
scalar MyScenario.node[6].nic.mac1609_4 	TooLittleTime 	0
scalar MyScenario.node[6].nic.mac1609_4 	TimesIntoBackoff 	0
scalar MyScenario.node[6].nic.mac1609_4 	SlotsBackoff 	0
scalar MyScenario.node[6].nic.mac1609_4 	NumInternalContention 	0
scalar MyScenario.node[6].nic.mac1609_4 	totalBusyTime 	0
scalar MyScenario.node[6].veinsmobility 	startTime 	1
scalar MyScenario.node[6].veinsmobility 	totalTime 	42
scalar MyScenario.node[6].veinsmobility 	stopTime 	44
scalar MyScenario.node[6].veinsmobility 	minSpeed 	1.7120662064524
scalar MyScenario.node[6].veinsmobility 	maxSpeed 	13.772716375859
scalar MyScenario.node[6].veinsmobility 	totalDistance 	480.74591003895
scalar MyScenario.node[6].veinsmobility 	totalCO2Emission 	139.62506866207
scalar MyScenario.node[92].appl 	generatedWSMs 	0
scalar MyScenario.node[92].appl 	receivedWSMs 	0
scalar MyScenario.node[92].appl 	generatedBSMs 	0
scalar MyScenario.node[92].appl 	receivedBSMs 	0
scalar MyScenario.node[92].appl 	generatedWSAs 	0
scalar MyScenario.node[92].appl 	receivedWSAs 	0
scalar MyScenario.node[92].nic.phy80211p 	busyTime 	5.8e-06
scalar MyScenario.node[92].nic.mac1609_4 	ReceivedUnicastPackets 	0
scalar MyScenario.node[92].nic.mac1609_4 	ReceivedBroadcasts 	0
scalar MyScenario.node[92].nic.mac1609_4 	SentPackets 	0
scalar MyScenario.node[92].nic.mac1609_4 	SNIRLostPackets 	1
scalar MyScenario.node[92].nic.mac1609_4 	RXTXLostPackets 	0
scalar MyScenario.node[92].nic.mac1609_4 	TotalLostPackets 	1
scalar MyScenario.node[92].nic.mac1609_4 	DroppedPacketsInMac 	0
scalar MyScenario.node[92].nic.mac1609_4 	TooLittleTime 	0
scalar MyScenario.node[92].nic.mac1609_4 	TimesIntoBackoff 	0
scalar MyScenario.node[92].nic.mac1609_4 	SlotsBackoff 	0
scalar MyScenario.node[92].nic.mac1609_4 	NumInternalContention 	0
scalar MyScenario.node[92].nic.mac1609_4 	totalBusyTime 	0.000232
scalar MyScenario.node[92].veinsmobility 	startTime 	4
scalar MyScenario.node[92].veinsmobility 	totalTime 	39
scalar MyScenario.node[92].veinsmobility 	stopTime 	44
scalar MyScenario.node[92].veinsmobility 	minSpeed 	2.2485398397548
scalar MyScenario.node[92].veinsmobility 	maxSpeed 	13.875899950974
scalar MyScenario.node[92].veinsmobility 	totalDistance 	475.3016953028
scalar MyScenario.node[92].veinsmobility 	totalCO2Emission 	103.19262699756
scalar MyScenario.node[93].appl 	generatedWSMs 	0
scalar MyScenario.node[93].appl 	receivedWSMs 	0
scalar MyScenario.node[93].appl 	generatedBSMs 	0
scalar MyScenario.node[93].appl 	receivedBSMs 	0
scalar MyScenario.node[93].appl 	generatedWSAs 	0
scalar MyScenario.node[93].appl 	receivedWSAs 	0
scalar MyScenario.node[93].nic.phy80211p 	busyTime 	0
scalar MyScenario.node[93].nic.mac1609_4 	ReceivedUnicastPackets 	0
scalar MyScenario.node[93].nic.mac1609_4 	ReceivedBroadcasts 	0
scalar MyScenario.node[93].nic.mac1609_4 	SentPackets 	0
scalar MyScenario.node[93].nic.mac1609_4 	SNIRLostPackets 	0
scalar MyScenario.node[93].nic.mac1609_4 	RXTXLostPackets 	0
scalar MyScenario.node[93].nic.mac1609_4 	TotalLostPackets 	0
scalar MyScenario.node[93].nic.mac1609_4 	DroppedPacketsInMac 	0
scalar MyScenario.node[93].nic.mac1609_4 	TooLittleTime 	0
scalar MyScenario.node[93].nic.mac1609_4 	TimesIntoBackoff 	0
scalar MyScenario.node[93].nic.mac1609_4 	SlotsBackoff 	0
scalar MyScenario.node[93].nic.mac1609_4 	NumInternalContention 	0
scalar MyScenario.node[93].nic.mac1609_4 	totalBusyTime 	0
scalar MyScenario.node[93].veinsmobility 	startTime 	4
scalar MyScenario.node[93].veinsmobility 	totalTime 	40
scalar MyScenario.node[93].veinsmobility 	stopTime 	45
scalar MyScenario.node[93].veinsmobility 	minSpeed 	1.9871671840316
scalar MyScenario.node[93].veinsmobility 	maxSpeed 	13.859119148063
scalar MyScenario.node[93].veinsmobility 	totalDistance 	470.37938321851
scalar MyScenario.node[93].veinsmobility 	totalCO2Emission 	122.42934187815
scalar MyScenario.node[51].appl 	generatedWSMs 	0
scalar MyScenario.node[51].appl 	receivedWSMs 	0
scalar MyScenario.node[51].appl 	generatedBSMs 	0
scalar MyScenario.node[51].appl 	receivedBSMs 	0
scalar MyScenario.node[51].appl 	generatedWSAs 	0
scalar MyScenario.node[51].appl 	receivedWSAs 	0
scalar MyScenario.node[51].nic.phy80211p 	busyTime 	0
scalar MyScenario.node[51].nic.mac1609_4 	ReceivedUnicastPackets 	0
scalar MyScenario.node[51].nic.mac1609_4 	ReceivedBroadcasts 	0
scalar MyScenario.node[51].nic.mac1609_4 	SentPackets 	0
scalar MyScenario.node[51].nic.mac1609_4 	SNIRLostPackets 	0
scalar MyScenario.node[51].nic.mac1609_4 	RXTXLostPackets 	0
scalar MyScenario.node[51].nic.mac1609_4 	TotalLostPackets 	0
scalar MyScenario.node[51].nic.mac1609_4 	DroppedPacketsInMac 	0
scalar MyScenario.node[51].nic.mac1609_4 	TooLittleTime 	0
scalar MyScenario.node[51].nic.mac1609_4 	TimesIntoBackoff 	0
scalar MyScenario.node[51].nic.mac1609_4 	SlotsBackoff 	0
scalar MyScenario.node[51].nic.mac1609_4 	NumInternalContention 	0
scalar MyScenario.node[51].nic.mac1609_4 	totalBusyTime 	0
scalar MyScenario.node[51].veinsmobility 	startTime 	1
scalar MyScenario.node[51].veinsmobility 	totalTime 	44
scalar MyScenario.node[51].veinsmobility 	stopTime 	46
scalar MyScenario.node[51].veinsmobility 	minSpeed 	2.0340808888432
scalar MyScenario.node[51].veinsmobility 	maxSpeed 	13.863027371
scalar MyScenario.node[51].veinsmobility 	totalDistance 	484.81405019234
scalar MyScenario.node[51].veinsmobility 	totalCO2Emission 	160.03020730911
scalar MyScenario.node[12].appl 	generatedWSMs 	1
scalar MyScenario.node[12].appl 	receivedWSMs 	4
scalar MyScenario.node[12].appl 	generatedBSMs 	0
scalar MyScenario.node[12].appl 	receivedBSMs 	0
scalar MyScenario.node[12].appl 	generatedWSAs 	0
scalar MyScenario.node[12].appl 	receivedWSAs 	0
scalar MyScenario.node[12].nic.phy80211p 	busyTime 	2.5777777777778e-05
scalar MyScenario.node[12].nic.mac1609_4 	ReceivedUnicastPackets 	0
scalar MyScenario.node[12].nic.mac1609_4 	ReceivedBroadcasts 	4
scalar MyScenario.node[12].nic.mac1609_4 	SentPackets 	1
scalar MyScenario.node[12].nic.mac1609_4 	SNIRLostPackets 	1
scalar MyScenario.node[12].nic.mac1609_4 	RXTXLostPackets 	2
scalar MyScenario.node[12].nic.mac1609_4 	TotalLostPackets 	3
scalar MyScenario.node[12].nic.mac1609_4 	DroppedPacketsInMac 	0
scalar MyScenario.node[12].nic.mac1609_4 	TooLittleTime 	0
scalar MyScenario.node[12].nic.mac1609_4 	TimesIntoBackoff 	1
scalar MyScenario.node[12].nic.mac1609_4 	SlotsBackoff 	1
scalar MyScenario.node[12].nic.mac1609_4 	NumInternalContention 	0
scalar MyScenario.node[12].nic.mac1609_4 	totalBusyTime 	0.001393
scalar MyScenario.node[12].veinsmobility 	startTime 	1
scalar MyScenario.node[12].veinsmobility 	totalTime 	44
scalar MyScenario.node[12].veinsmobility 	stopTime 	46
scalar MyScenario.node[12].veinsmobility 	minSpeed 	1.5682713115588
scalar MyScenario.node[12].veinsmobility 	maxSpeed 	13.87254978884
scalar MyScenario.node[12].veinsmobility 	totalDistance 	479.78998547101
scalar MyScenario.node[12].veinsmobility 	totalCO2Emission 	163.17042099813
scalar MyScenario.node[37].appl 	generatedWSMs 	0
scalar MyScenario.node[37].appl 	receivedWSMs 	0
scalar MyScenario.node[37].appl 	generatedBSMs 	0
scalar MyScenario.node[37].appl 	receivedBSMs 	0
scalar MyScenario.node[37].appl 	generatedWSAs 	0
scalar MyScenario.node[37].appl 	receivedWSAs 	0
scalar MyScenario.node[37].nic.phy80211p 	busyTime 	0
scalar MyScenario.node[37].nic.mac1609_4 	ReceivedUnicastPackets 	0
scalar MyScenario.node[37].nic.mac1609_4 	ReceivedBroadcasts 	0
scalar MyScenario.node[37].nic.mac1609_4 	SentPackets 	0
scalar MyScenario.node[37].nic.mac1609_4 	SNIRLostPackets 	0
scalar MyScenario.node[37].nic.mac1609_4 	RXTXLostPackets 	0
scalar MyScenario.node[37].nic.mac1609_4 	TotalLostPackets 	0
scalar MyScenario.node[37].nic.mac1609_4 	DroppedPacketsInMac 	0
scalar MyScenario.node[37].nic.mac1609_4 	TooLittleTime 	0
scalar MyScenario.node[37].nic.mac1609_4 	TimesIntoBackoff 	0
scalar MyScenario.node[37].nic.mac1609_4 	SlotsBackoff 	0
scalar MyScenario.node[37].nic.mac1609_4 	NumInternalContention 	0
scalar MyScenario.node[37].nic.mac1609_4 	totalBusyTime 	0
scalar MyScenario.node[37].veinsmobility 	startTime 	1
scalar MyScenario.node[37].veinsmobility 	totalTime 	46
scalar MyScenario.node[37].veinsmobility 	stopTime 	48
scalar MyScenario.node[37].veinsmobility 	minSpeed 	2.3339567731367
scalar MyScenario.node[37].veinsmobility 	maxSpeed 	13.804452099768
scalar MyScenario.node[37].veinsmobility 	totalDistance 	476.99980224789
scalar MyScenario.node[37].veinsmobility 	totalCO2Emission 	178.74633711137
scalar MyScenario.node[7].appl 	generatedWSMs 	0
scalar MyScenario.node[7].appl 	receivedWSMs 	0
scalar MyScenario.node[7].appl 	generatedBSMs 	0
scalar MyScenario.node[7].appl 	receivedBSMs 	0
scalar MyScenario.node[7].appl 	generatedWSAs 	0
scalar MyScenario.node[7].appl 	receivedWSAs 	0
scalar MyScenario.node[7].nic.phy80211p 	busyTime 	0
scalar MyScenario.node[7].nic.mac1609_4 	ReceivedUnicastPackets 	0
scalar MyScenario.node[7].nic.mac1609_4 	ReceivedBroadcasts 	0
scalar MyScenario.node[7].nic.mac1609_4 	SentPackets 	0
scalar MyScenario.node[7].nic.mac1609_4 	SNIRLostPackets 	0
scalar MyScenario.node[7].nic.mac1609_4 	RXTXLostPackets 	0
scalar MyScenario.node[7].nic.mac1609_4 	TotalLostPackets 	0
scalar MyScenario.node[7].nic.mac1609_4 	DroppedPacketsInMac 	0
scalar MyScenario.node[7].nic.mac1609_4 	TooLittleTime 	0
scalar MyScenario.node[7].nic.mac1609_4 	TimesIntoBackoff 	0
scalar MyScenario.node[7].nic.mac1609_4 	SlotsBackoff 	0
scalar MyScenario.node[7].nic.mac1609_4 	NumInternalContention 	0
scalar MyScenario.node[7].nic.mac1609_4 	totalBusyTime 	0
scalar MyScenario.node[7].veinsmobility 	startTime 	1
scalar MyScenario.node[7].veinsmobility 	totalTime 	47
scalar MyScenario.node[7].veinsmobility 	stopTime 	49
scalar MyScenario.node[7].veinsmobility 	minSpeed 	0.061415169710501
scalar MyScenario.node[7].veinsmobility 	maxSpeed 	13.869959133654
scalar MyScenario.node[7].veinsmobility 	totalDistance 	474.40429197171
scalar MyScenario.node[7].veinsmobility 	totalCO2Emission 	151.01404754155
scalar MyScenario.node[79].appl 	generatedWSMs 	0
scalar MyScenario.node[79].appl 	receivedWSMs 	0
scalar MyScenario.node[79].appl 	generatedBSMs 	0
scalar MyScenario.node[79].appl 	receivedBSMs 	0
scalar MyScenario.node[79].appl 	generatedWSAs 	0
scalar MyScenario.node[79].appl 	receivedWSAs 	0
scalar MyScenario.node[79].nic.phy80211p 	busyTime 	0
scalar MyScenario.node[79].nic.mac1609_4 	ReceivedUnicastPackets 	0
scalar MyScenario.node[79].nic.mac1609_4 	ReceivedBroadcasts 	0
scalar MyScenario.node[79].nic.mac1609_4 	SentPackets 	0
scalar MyScenario.node[79].nic.mac1609_4 	SNIRLostPackets 	0
scalar MyScenario.node[79].nic.mac1609_4 	RXTXLostPackets 	0
scalar MyScenario.node[79].nic.mac1609_4 	TotalLostPackets 	0
scalar MyScenario.node[79].nic.mac1609_4 	DroppedPacketsInMac 	0
scalar MyScenario.node[79].nic.mac1609_4 	TooLittleTime 	0
scalar MyScenario.node[79].nic.mac1609_4 	TimesIntoBackoff 	0
scalar MyScenario.node[79].nic.mac1609_4 	SlotsBackoff 	0
scalar MyScenario.node[79].nic.mac1609_4 	NumInternalContention 	0
scalar MyScenario.node[79].nic.mac1609_4 	totalBusyTime 	0
scalar MyScenario.node[79].veinsmobility 	startTime 	1
scalar MyScenario.node[79].veinsmobility 	totalTime 	48
scalar MyScenario.node[79].veinsmobility 	stopTime 	50
scalar MyScenario.node[79].veinsmobility 	minSpeed 	2.434692036733
scalar MyScenario.node[79].veinsmobility 	maxSpeed 	13.867273242073
scalar MyScenario.node[79].veinsmobility 	totalDistance 	575.0064679827
scalar MyScenario.node[79].veinsmobility 	totalCO2Emission 	153.00493488638
scalar MyScenario.node[40].appl 	generatedWSMs 	0
scalar MyScenario.node[40].appl 	receivedWSMs 	0
scalar MyScenario.node[40].appl 	generatedBSMs 	0
scalar MyScenario.node[40].appl 	receivedBSMs 	0
scalar MyScenario.node[40].appl 	generatedWSAs 	0
scalar MyScenario.node[40].appl 	receivedWSAs 	0
scalar MyScenario.node[40].nic.phy80211p 	busyTime 	0
scalar MyScenario.node[40].nic.mac1609_4 	ReceivedUnicastPackets 	0
scalar MyScenario.node[40].nic.mac1609_4 	ReceivedBroadcasts 	0
scalar MyScenario.node[40].nic.mac1609_4 	SentPackets 	0
scalar MyScenario.node[40].nic.mac1609_4 	SNIRLostPackets 	0
scalar MyScenario.node[40].nic.mac1609_4 	RXTXLostPackets 	0
scalar MyScenario.node[40].nic.mac1609_4 	TotalLostPackets 	0
scalar MyScenario.node[40].nic.mac1609_4 	DroppedPacketsInMac 	0
scalar MyScenario.node[40].nic.mac1609_4 	TooLittleTime 	0
scalar MyScenario.node[40].nic.mac1609_4 	TimesIntoBackoff 	0
scalar MyScenario.node[40].nic.mac1609_4 	SlotsBackoff 	0
scalar MyScenario.node[40].nic.mac1609_4 	NumInternalContention 	0
scalar MyScenario.node[40].nic.mac1609_4 	totalBusyTime 	0
scalar MyScenario.node[40].veinsmobility 	startTime 	1
scalar MyScenario.node[40].veinsmobility 	totalTime 	49
scalar MyScenario.node[40].veinsmobility 	stopTime 	51
scalar MyScenario.node[40].veinsmobility 	minSpeed 	1.8899304886116
scalar MyScenario.node[40].veinsmobility 	maxSpeed 	13.899495222047
scalar MyScenario.node[40].veinsmobility 	totalDistance 	567.33899899027
scalar MyScenario.node[40].veinsmobility 	totalCO2Emission 	147.8712200103
scalar MyScenario.node[17].appl 	generatedWSMs 	0
scalar MyScenario.node[17].appl 	receivedWSMs 	0
scalar MyScenario.node[17].appl 	generatedBSMs 	0
scalar MyScenario.node[17].appl 	receivedBSMs 	0
scalar MyScenario.node[17].appl 	generatedWSAs 	0
scalar MyScenario.node[17].appl 	receivedWSAs 	0
scalar MyScenario.node[17].nic.phy80211p 	busyTime 	0
scalar MyScenario.node[17].nic.mac1609_4 	ReceivedUnicastPackets 	0
scalar MyScenario.node[17].nic.mac1609_4 	ReceivedBroadcasts 	0
scalar MyScenario.node[17].nic.mac1609_4 	SentPackets 	0
scalar MyScenario.node[17].nic.mac1609_4 	SNIRLostPackets 	0
scalar MyScenario.node[17].nic.mac1609_4 	RXTXLostPackets 	0
scalar MyScenario.node[17].nic.mac1609_4 	TotalLostPackets 	0
scalar MyScenario.node[17].nic.mac1609_4 	DroppedPacketsInMac 	0
scalar MyScenario.node[17].nic.mac1609_4 	TooLittleTime 	0
scalar MyScenario.node[17].nic.mac1609_4 	TimesIntoBackoff 	0
scalar MyScenario.node[17].nic.mac1609_4 	SlotsBackoff 	0
scalar MyScenario.node[17].nic.mac1609_4 	NumInternalContention 	0
scalar MyScenario.node[17].nic.mac1609_4 	totalBusyTime 	0
scalar MyScenario.node[17].veinsmobility 	startTime 	1
scalar MyScenario.node[17].veinsmobility 	totalTime 	49
scalar MyScenario.node[17].veinsmobility 	stopTime 	51
scalar MyScenario.node[17].veinsmobility 	minSpeed 	2.3699199890951
scalar MyScenario.node[17].veinsmobility 	maxSpeed 	13.862105883425
scalar MyScenario.node[17].veinsmobility 	totalDistance 	573.59356870426
scalar MyScenario.node[17].veinsmobility 	totalCO2Emission 	141.9965543747
scalar MyScenario.node[29].appl 	generatedWSMs 	0
scalar MyScenario.node[29].appl 	receivedWSMs 	0
scalar MyScenario.node[29].appl 	generatedBSMs 	0
scalar MyScenario.node[29].appl 	receivedBSMs 	0
scalar MyScenario.node[29].appl 	generatedWSAs 	0
scalar MyScenario.node[29].appl 	receivedWSAs 	0
scalar MyScenario.node[29].nic.phy80211p 	busyTime 	0
scalar MyScenario.node[29].nic.mac1609_4 	ReceivedUnicastPackets 	0
scalar MyScenario.node[29].nic.mac1609_4 	ReceivedBroadcasts 	0
scalar MyScenario.node[29].nic.mac1609_4 	SentPackets 	0
scalar MyScenario.node[29].nic.mac1609_4 	SNIRLostPackets 	0
scalar MyScenario.node[29].nic.mac1609_4 	RXTXLostPackets 	0
scalar MyScenario.node[29].nic.mac1609_4 	TotalLostPackets 	0
scalar MyScenario.node[29].nic.mac1609_4 	DroppedPacketsInMac 	0
scalar MyScenario.node[29].nic.mac1609_4 	TooLittleTime 	0
scalar MyScenario.node[29].nic.mac1609_4 	TimesIntoBackoff 	0
scalar MyScenario.node[29].nic.mac1609_4 	SlotsBackoff 	0
scalar MyScenario.node[29].nic.mac1609_4 	NumInternalContention 	0
scalar MyScenario.node[29].nic.mac1609_4 	totalBusyTime 	0
scalar MyScenario.node[29].veinsmobility 	startTime 	1
scalar MyScenario.node[29].veinsmobility 	totalTime 	50
scalar MyScenario.node[29].veinsmobility 	stopTime 	52
scalar MyScenario.node[29].veinsmobility 	minSpeed 	1.9323484468274
scalar MyScenario.node[29].veinsmobility 	maxSpeed 	13.871024741023
scalar MyScenario.node[29].veinsmobility 	totalDistance 	555.54926358108
scalar MyScenario.node[29].veinsmobility 	totalCO2Emission 	170.52057360254
scalar MyScenario.node[54].appl 	generatedWSMs 	0
scalar MyScenario.node[54].appl 	receivedWSMs 	0
scalar MyScenario.node[54].appl 	generatedBSMs 	0
scalar MyScenario.node[54].appl 	receivedBSMs 	0
scalar MyScenario.node[54].appl 	generatedWSAs 	0
scalar MyScenario.node[54].appl 	receivedWSAs 	0
scalar MyScenario.node[54].nic.phy80211p 	busyTime 	0
scalar MyScenario.node[54].nic.mac1609_4 	ReceivedUnicastPackets 	0
scalar MyScenario.node[54].nic.mac1609_4 	ReceivedBroadcasts 	0
scalar MyScenario.node[54].nic.mac1609_4 	SentPackets 	0
scalar MyScenario.node[54].nic.mac1609_4 	SNIRLostPackets 	0
scalar MyScenario.node[54].nic.mac1609_4 	RXTXLostPackets 	0
scalar MyScenario.node[54].nic.mac1609_4 	TotalLostPackets 	0
scalar MyScenario.node[54].nic.mac1609_4 	DroppedPacketsInMac 	0
scalar MyScenario.node[54].nic.mac1609_4 	TooLittleTime 	0
scalar MyScenario.node[54].nic.mac1609_4 	TimesIntoBackoff 	0
scalar MyScenario.node[54].nic.mac1609_4 	SlotsBackoff 	0
scalar MyScenario.node[54].nic.mac1609_4 	NumInternalContention 	0
scalar MyScenario.node[54].nic.mac1609_4 	totalBusyTime 	0
scalar MyScenario.node[54].veinsmobility 	startTime 	1
scalar MyScenario.node[54].veinsmobility 	totalTime 	50
scalar MyScenario.node[54].veinsmobility 	stopTime 	52
scalar MyScenario.node[54].veinsmobility 	minSpeed 	1.6914785038913
scalar MyScenario.node[54].veinsmobility 	maxSpeed 	13.862345529278
scalar MyScenario.node[54].veinsmobility 	totalDistance 	573.19873276762
scalar MyScenario.node[54].veinsmobility 	totalCO2Emission 	163.94273434405
scalar MyScenario.node[55].appl 	generatedWSMs 	0
scalar MyScenario.node[55].appl 	receivedWSMs 	0
scalar MyScenario.node[55].appl 	generatedBSMs 	0
scalar MyScenario.node[55].appl 	receivedBSMs 	0
scalar MyScenario.node[55].appl 	generatedWSAs 	0
scalar MyScenario.node[55].appl 	receivedWSAs 	0
scalar MyScenario.node[55].nic.phy80211p 	busyTime 	2.6769230769231e-05
scalar MyScenario.node[55].nic.mac1609_4 	ReceivedUnicastPackets 	0
scalar MyScenario.node[55].nic.mac1609_4 	ReceivedBroadcasts 	0
scalar MyScenario.node[55].nic.mac1609_4 	SentPackets 	0
scalar MyScenario.node[55].nic.mac1609_4 	SNIRLostPackets 	6
scalar MyScenario.node[55].nic.mac1609_4 	RXTXLostPackets 	0
scalar MyScenario.node[55].nic.mac1609_4 	TotalLostPackets 	6
scalar MyScenario.node[55].nic.mac1609_4 	DroppedPacketsInMac 	0
scalar MyScenario.node[55].nic.mac1609_4 	TooLittleTime 	0
scalar MyScenario.node[55].nic.mac1609_4 	TimesIntoBackoff 	0
scalar MyScenario.node[55].nic.mac1609_4 	SlotsBackoff 	0
scalar MyScenario.node[55].nic.mac1609_4 	NumInternalContention 	0
scalar MyScenario.node[55].nic.mac1609_4 	totalBusyTime 	0.000464
scalar MyScenario.node[55].veinsmobility 	startTime 	1
scalar MyScenario.node[55].veinsmobility 	totalTime 	51
scalar MyScenario.node[55].veinsmobility 	stopTime 	53
scalar MyScenario.node[55].veinsmobility 	minSpeed 	1.9431922679767
scalar MyScenario.node[55].veinsmobility 	maxSpeed 	13.863575325022
scalar MyScenario.node[55].veinsmobility 	totalDistance 	578.7776450009
scalar MyScenario.node[55].veinsmobility 	totalCO2Emission 	168.40307911344
scalar MyScenario.node[13].appl 	generatedWSMs 	1
scalar MyScenario.node[13].appl 	receivedWSMs 	5
scalar MyScenario.node[13].appl 	generatedBSMs 	0
scalar MyScenario.node[13].appl 	receivedBSMs 	0
scalar MyScenario.node[13].appl 	generatedWSAs 	0
scalar MyScenario.node[13].appl 	receivedWSAs 	0
scalar MyScenario.node[13].nic.phy80211p 	busyTime 	3.1230769230769e-05
scalar MyScenario.node[13].nic.mac1609_4 	ReceivedUnicastPackets 	0
scalar MyScenario.node[13].nic.mac1609_4 	ReceivedBroadcasts 	5
scalar MyScenario.node[13].nic.mac1609_4 	SentPackets 	1
scalar MyScenario.node[13].nic.mac1609_4 	SNIRLostPackets 	2
scalar MyScenario.node[13].nic.mac1609_4 	RXTXLostPackets 	5
scalar MyScenario.node[13].nic.mac1609_4 	TotalLostPackets 	7
scalar MyScenario.node[13].nic.mac1609_4 	DroppedPacketsInMac 	0
scalar MyScenario.node[13].nic.mac1609_4 	TooLittleTime 	0
scalar MyScenario.node[13].nic.mac1609_4 	TimesIntoBackoff 	1
scalar MyScenario.node[13].nic.mac1609_4 	SlotsBackoff 	3
scalar MyScenario.node[13].nic.mac1609_4 	NumInternalContention 	0
scalar MyScenario.node[13].nic.mac1609_4 	totalBusyTime 	0.001625132804
scalar MyScenario.node[13].veinsmobility 	startTime 	1
scalar MyScenario.node[13].veinsmobility 	totalTime 	51
scalar MyScenario.node[13].veinsmobility 	stopTime 	53
scalar MyScenario.node[13].veinsmobility 	minSpeed 	1.5689833340934
scalar MyScenario.node[13].veinsmobility 	maxSpeed 	13.864793413715
scalar MyScenario.node[13].veinsmobility 	totalDistance 	578.15618226662
scalar MyScenario.node[13].veinsmobility 	totalCO2Emission 	165.50066775297
scalar MyScenario.node[58].appl 	generatedWSMs 	0
scalar MyScenario.node[58].appl 	receivedWSMs 	0
scalar MyScenario.node[58].appl 	generatedBSMs 	0
scalar MyScenario.node[58].appl 	receivedBSMs 	0
scalar MyScenario.node[58].appl 	generatedWSAs 	0
scalar MyScenario.node[58].appl 	receivedWSAs 	0
scalar MyScenario.node[58].nic.phy80211p 	busyTime 	0
scalar MyScenario.node[58].nic.mac1609_4 	ReceivedUnicastPackets 	0
scalar MyScenario.node[58].nic.mac1609_4 	ReceivedBroadcasts 	0
scalar MyScenario.node[58].nic.mac1609_4 	SentPackets 	0
scalar MyScenario.node[58].nic.mac1609_4 	SNIRLostPackets 	0
scalar MyScenario.node[58].nic.mac1609_4 	RXTXLostPackets 	0
scalar MyScenario.node[58].nic.mac1609_4 	TotalLostPackets 	0
scalar MyScenario.node[58].nic.mac1609_4 	DroppedPacketsInMac 	0
scalar MyScenario.node[58].nic.mac1609_4 	TooLittleTime 	0
scalar MyScenario.node[58].nic.mac1609_4 	TimesIntoBackoff 	0
scalar MyScenario.node[58].nic.mac1609_4 	SlotsBackoff 	0
scalar MyScenario.node[58].nic.mac1609_4 	NumInternalContention 	0
scalar MyScenario.node[58].nic.mac1609_4 	totalBusyTime 	0
scalar MyScenario.node[58].veinsmobility 	startTime 	1
scalar MyScenario.node[58].veinsmobility 	totalTime 	51
scalar MyScenario.node[58].veinsmobility 	stopTime 	53
scalar MyScenario.node[58].veinsmobility 	minSpeed 	1.3394778700545
scalar MyScenario.node[58].veinsmobility 	maxSpeed 	13.869928987348
scalar MyScenario.node[58].veinsmobility 	totalDistance 	572.47948215709
scalar MyScenario.node[58].veinsmobility 	totalCO2Emission 	163.17009333311
scalar MyScenario.node[96].appl 	generatedWSMs 	0
scalar MyScenario.node[96].appl 	receivedWSMs 	0
scalar MyScenario.node[96].appl 	generatedBSMs 	0
scalar MyScenario.node[96].appl 	receivedBSMs 	0
scalar MyScenario.node[96].appl 	generatedWSAs 	0
scalar MyScenario.node[96].appl 	receivedWSAs 	0
scalar MyScenario.node[96].nic.phy80211p 	busyTime 	0
scalar MyScenario.node[96].nic.mac1609_4 	ReceivedUnicastPackets 	0
scalar MyScenario.node[96].nic.mac1609_4 	ReceivedBroadcasts 	0
scalar MyScenario.node[96].nic.mac1609_4 	SentPackets 	0
scalar MyScenario.node[96].nic.mac1609_4 	SNIRLostPackets 	0
scalar MyScenario.node[96].nic.mac1609_4 	RXTXLostPackets 	0
scalar MyScenario.node[96].nic.mac1609_4 	TotalLostPackets 	0
scalar MyScenario.node[96].nic.mac1609_4 	DroppedPacketsInMac 	0
scalar MyScenario.node[96].nic.mac1609_4 	TooLittleTime 	0
scalar MyScenario.node[96].nic.mac1609_4 	TimesIntoBackoff 	0
scalar MyScenario.node[96].nic.mac1609_4 	SlotsBackoff 	0
scalar MyScenario.node[96].nic.mac1609_4 	NumInternalContention 	0
scalar MyScenario.node[96].nic.mac1609_4 	totalBusyTime 	0
scalar MyScenario.node[96].veinsmobility 	startTime 	4
scalar MyScenario.node[96].veinsmobility 	totalTime 	49
scalar MyScenario.node[96].veinsmobility 	stopTime 	54
scalar MyScenario.node[96].veinsmobility 	minSpeed 	2.3173768506618
scalar MyScenario.node[96].veinsmobility 	maxSpeed 	13.892755991314
scalar MyScenario.node[96].veinsmobility 	totalDistance 	568.08488922817
scalar MyScenario.node[96].veinsmobility 	totalCO2Emission 	159.83825509483
scalar MyScenario.node[53].appl 	generatedWSMs 	0
scalar MyScenario.node[53].appl 	receivedWSMs 	0
scalar MyScenario.node[53].appl 	generatedBSMs 	0
scalar MyScenario.node[53].appl 	receivedBSMs 	0
scalar MyScenario.node[53].appl 	generatedWSAs 	0
scalar MyScenario.node[53].appl 	receivedWSAs 	0
scalar MyScenario.node[53].nic.phy80211p 	busyTime 	4.2962962962963e-06
scalar MyScenario.node[53].nic.mac1609_4 	ReceivedUnicastPackets 	0
scalar MyScenario.node[53].nic.mac1609_4 	ReceivedBroadcasts 	0
scalar MyScenario.node[53].nic.mac1609_4 	SentPackets 	0
scalar MyScenario.node[53].nic.mac1609_4 	SNIRLostPackets 	1
scalar MyScenario.node[53].nic.mac1609_4 	RXTXLostPackets 	0
scalar MyScenario.node[53].nic.mac1609_4 	TotalLostPackets 	1
scalar MyScenario.node[53].nic.mac1609_4 	DroppedPacketsInMac 	0
scalar MyScenario.node[53].nic.mac1609_4 	TooLittleTime 	0
scalar MyScenario.node[53].nic.mac1609_4 	TimesIntoBackoff 	0
scalar MyScenario.node[53].nic.mac1609_4 	SlotsBackoff 	0
scalar MyScenario.node[53].nic.mac1609_4 	NumInternalContention 	0
scalar MyScenario.node[53].nic.mac1609_4 	totalBusyTime 	0.000232
scalar MyScenario.node[53].veinsmobility 	startTime 	1
scalar MyScenario.node[53].veinsmobility 	totalTime 	53
scalar MyScenario.node[53].veinsmobility 	stopTime 	55
scalar MyScenario.node[53].veinsmobility 	minSpeed 	2.4609706099611
scalar MyScenario.node[53].veinsmobility 	maxSpeed 	13.883097452903
scalar MyScenario.node[53].veinsmobility 	totalDistance 	563.05262231897
scalar MyScenario.node[53].veinsmobility 	totalCO2Emission 	185.89430916206
scalar MyScenario.node[10].appl 	generatedWSMs 	0
scalar MyScenario.node[10].appl 	receivedWSMs 	0
scalar MyScenario.node[10].appl 	generatedBSMs 	0
scalar MyScenario.node[10].appl 	receivedBSMs 	0
scalar MyScenario.node[10].appl 	generatedWSAs 	0
scalar MyScenario.node[10].appl 	receivedWSAs 	0
scalar MyScenario.node[10].nic.phy80211p 	busyTime 	4.2181818181818e-06
scalar MyScenario.node[10].nic.mac1609_4 	ReceivedUnicastPackets 	0
scalar MyScenario.node[10].nic.mac1609_4 	ReceivedBroadcasts 	0
scalar MyScenario.node[10].nic.mac1609_4 	SentPackets 	0
scalar MyScenario.node[10].nic.mac1609_4 	SNIRLostPackets 	1
scalar MyScenario.node[10].nic.mac1609_4 	RXTXLostPackets 	0
scalar MyScenario.node[10].nic.mac1609_4 	TotalLostPackets 	1
scalar MyScenario.node[10].nic.mac1609_4 	DroppedPacketsInMac 	0
scalar MyScenario.node[10].nic.mac1609_4 	TooLittleTime 	0
scalar MyScenario.node[10].nic.mac1609_4 	TimesIntoBackoff 	0
scalar MyScenario.node[10].nic.mac1609_4 	SlotsBackoff 	0
scalar MyScenario.node[10].nic.mac1609_4 	NumInternalContention 	0
scalar MyScenario.node[10].nic.mac1609_4 	totalBusyTime 	0.000232
scalar MyScenario.node[10].veinsmobility 	startTime 	1
scalar MyScenario.node[10].veinsmobility 	totalTime 	54
scalar MyScenario.node[10].veinsmobility 	stopTime 	56
scalar MyScenario.node[10].veinsmobility 	minSpeed 	0.17615943004082
scalar MyScenario.node[10].veinsmobility 	maxSpeed 	13.860798606486
scalar MyScenario.node[10].veinsmobility 	totalDistance 	559.26344413746
scalar MyScenario.node[10].veinsmobility 	totalCO2Emission 	188.33993342006
scalar MyScenario.node[2].appl 	generatedWSMs 	0
scalar MyScenario.node[2].appl 	receivedWSMs 	0
scalar MyScenario.node[2].appl 	generatedBSMs 	0
scalar MyScenario.node[2].appl 	receivedBSMs 	0
scalar MyScenario.node[2].appl 	generatedWSAs 	0
scalar MyScenario.node[2].appl 	receivedWSAs 	0
scalar MyScenario.node[2].nic.phy80211p 	busyTime 	0
scalar MyScenario.node[2].nic.mac1609_4 	ReceivedUnicastPackets 	0
scalar MyScenario.node[2].nic.mac1609_4 	ReceivedBroadcasts 	0
scalar MyScenario.node[2].nic.mac1609_4 	SentPackets 	0
scalar MyScenario.node[2].nic.mac1609_4 	SNIRLostPackets 	0
scalar MyScenario.node[2].nic.mac1609_4 	RXTXLostPackets 	0
scalar MyScenario.node[2].nic.mac1609_4 	TotalLostPackets 	0
scalar MyScenario.node[2].nic.mac1609_4 	DroppedPacketsInMac 	0
scalar MyScenario.node[2].nic.mac1609_4 	TooLittleTime 	0
scalar MyScenario.node[2].nic.mac1609_4 	TimesIntoBackoff 	0
scalar MyScenario.node[2].nic.mac1609_4 	SlotsBackoff 	0
scalar MyScenario.node[2].nic.mac1609_4 	NumInternalContention 	0
scalar MyScenario.node[2].nic.mac1609_4 	totalBusyTime 	0
scalar MyScenario.node[2].veinsmobility 	startTime 	1
scalar MyScenario.node[2].veinsmobility 	totalTime 	55
scalar MyScenario.node[2].veinsmobility 	stopTime 	57
scalar MyScenario.node[2].veinsmobility 	minSpeed 	0.00053031100346185
scalar MyScenario.node[2].veinsmobility 	maxSpeed 	13.830118839303
scalar MyScenario.node[2].veinsmobility 	totalDistance 	558.88679495358
scalar MyScenario.node[2].veinsmobility 	totalCO2Emission 	164.70006464898
scalar MyScenario.node[76].appl 	generatedWSMs 	0
scalar MyScenario.node[76].appl 	receivedWSMs 	0
scalar MyScenario.node[76].appl 	generatedBSMs 	0
scalar MyScenario.node[76].appl 	receivedBSMs 	0
scalar MyScenario.node[76].appl 	generatedWSAs 	0
scalar MyScenario.node[76].appl 	receivedWSAs 	0
scalar MyScenario.node[76].nic.phy80211p 	busyTime 	0
scalar MyScenario.node[76].nic.mac1609_4 	ReceivedUnicastPackets 	0
scalar MyScenario.node[76].nic.mac1609_4 	ReceivedBroadcasts 	0
scalar MyScenario.node[76].nic.mac1609_4 	SentPackets 	0
scalar MyScenario.node[76].nic.mac1609_4 	SNIRLostPackets 	0
scalar MyScenario.node[76].nic.mac1609_4 	RXTXLostPackets 	0
scalar MyScenario.node[76].nic.mac1609_4 	TotalLostPackets 	0
scalar MyScenario.node[76].nic.mac1609_4 	DroppedPacketsInMac 	0
scalar MyScenario.node[76].nic.mac1609_4 	TooLittleTime 	0
scalar MyScenario.node[76].nic.mac1609_4 	TimesIntoBackoff 	0
scalar MyScenario.node[76].nic.mac1609_4 	SlotsBackoff 	0
scalar MyScenario.node[76].nic.mac1609_4 	NumInternalContention 	0
scalar MyScenario.node[76].nic.mac1609_4 	totalBusyTime 	0
scalar MyScenario.node[76].veinsmobility 	startTime 	1
scalar MyScenario.node[76].veinsmobility 	totalTime 	56
scalar MyScenario.node[76].veinsmobility 	stopTime 	58
scalar MyScenario.node[76].veinsmobility 	minSpeed 	0.0031708427457094
scalar MyScenario.node[76].veinsmobility 	maxSpeed 	13.810706181033
scalar MyScenario.node[76].veinsmobility 	totalDistance 	569.65443985938
scalar MyScenario.node[76].veinsmobility 	totalCO2Emission 	175.46298477689
scalar MyScenario.node[67].appl 	generatedWSMs 	0
scalar MyScenario.node[67].appl 	receivedWSMs 	0
scalar MyScenario.node[67].appl 	generatedBSMs 	0
scalar MyScenario.node[67].appl 	receivedBSMs 	0
scalar MyScenario.node[67].appl 	generatedWSAs 	0
scalar MyScenario.node[67].appl 	receivedWSAs 	0
scalar MyScenario.node[67].nic.phy80211p 	busyTime 	0
scalar MyScenario.node[67].nic.mac1609_4 	ReceivedUnicastPackets 	0
scalar MyScenario.node[67].nic.mac1609_4 	ReceivedBroadcasts 	0
scalar MyScenario.node[67].nic.mac1609_4 	SentPackets 	0
scalar MyScenario.node[67].nic.mac1609_4 	SNIRLostPackets 	0
scalar MyScenario.node[67].nic.mac1609_4 	RXTXLostPackets 	0
scalar MyScenario.node[67].nic.mac1609_4 	TotalLostPackets 	0
scalar MyScenario.node[67].nic.mac1609_4 	DroppedPacketsInMac 	0
scalar MyScenario.node[67].nic.mac1609_4 	TooLittleTime 	0
scalar MyScenario.node[67].nic.mac1609_4 	TimesIntoBackoff 	0
scalar MyScenario.node[67].nic.mac1609_4 	SlotsBackoff 	0
scalar MyScenario.node[67].nic.mac1609_4 	NumInternalContention 	0
scalar MyScenario.node[67].nic.mac1609_4 	totalBusyTime 	0
scalar MyScenario.node[67].veinsmobility 	startTime 	1
scalar MyScenario.node[67].veinsmobility 	totalTime 	57
scalar MyScenario.node[67].veinsmobility 	stopTime 	59
scalar MyScenario.node[67].veinsmobility 	minSpeed 	0.014355652381491
scalar MyScenario.node[67].veinsmobility 	maxSpeed 	13.889693104429
scalar MyScenario.node[67].veinsmobility 	totalDistance 	573.68630826632
scalar MyScenario.node[67].veinsmobility 	totalCO2Emission 	185.0183855502
scalar MyScenario.node[75].appl 	generatedWSMs 	0
scalar MyScenario.node[75].appl 	receivedWSMs 	0
scalar MyScenario.node[75].appl 	generatedBSMs 	0
scalar MyScenario.node[75].appl 	receivedBSMs 	0
scalar MyScenario.node[75].appl 	generatedWSAs 	0
scalar MyScenario.node[75].appl 	receivedWSAs 	0
scalar MyScenario.node[75].nic.phy80211p 	busyTime 	0
scalar MyScenario.node[75].nic.mac1609_4 	ReceivedUnicastPackets 	0
scalar MyScenario.node[75].nic.mac1609_4 	ReceivedBroadcasts 	0
scalar MyScenario.node[75].nic.mac1609_4 	SentPackets 	0
scalar MyScenario.node[75].nic.mac1609_4 	SNIRLostPackets 	0
scalar MyScenario.node[75].nic.mac1609_4 	RXTXLostPackets 	0
scalar MyScenario.node[75].nic.mac1609_4 	TotalLostPackets 	0
scalar MyScenario.node[75].nic.mac1609_4 	DroppedPacketsInMac 	0
scalar MyScenario.node[75].nic.mac1609_4 	TooLittleTime 	0
scalar MyScenario.node[75].nic.mac1609_4 	TimesIntoBackoff 	0
scalar MyScenario.node[75].nic.mac1609_4 	SlotsBackoff 	0
scalar MyScenario.node[75].nic.mac1609_4 	NumInternalContention 	0
scalar MyScenario.node[75].nic.mac1609_4 	totalBusyTime 	0
scalar MyScenario.node[75].veinsmobility 	startTime 	1
scalar MyScenario.node[75].veinsmobility 	totalTime 	58
scalar MyScenario.node[75].veinsmobility 	stopTime 	60
scalar MyScenario.node[75].veinsmobility 	minSpeed 	2.0332066265866
scalar MyScenario.node[75].veinsmobility 	maxSpeed 	13.881486398005
scalar MyScenario.node[75].veinsmobility 	totalDistance 	677.90703524548
scalar MyScenario.node[75].veinsmobility 	totalCO2Emission 	172.31614433809
scalar MyScenario.node[16].appl 	generatedWSMs 	1
scalar MyScenario.node[16].appl 	receivedWSMs 	1
scalar MyScenario.node[16].appl 	generatedBSMs 	0
scalar MyScenario.node[16].appl 	receivedBSMs 	0
scalar MyScenario.node[16].appl 	generatedWSAs 	0
scalar MyScenario.node[16].appl 	receivedWSAs 	0
scalar MyScenario.node[16].nic.phy80211p 	busyTime 	3.9322033898305e-06
scalar MyScenario.node[16].nic.mac1609_4 	ReceivedUnicastPackets 	0
scalar MyScenario.node[16].nic.mac1609_4 	ReceivedBroadcasts 	1
scalar MyScenario.node[16].nic.mac1609_4 	SentPackets 	1
scalar MyScenario.node[16].nic.mac1609_4 	SNIRLostPackets 	0
scalar MyScenario.node[16].nic.mac1609_4 	RXTXLostPackets 	5
scalar MyScenario.node[16].nic.mac1609_4 	TotalLostPackets 	5
scalar MyScenario.node[16].nic.mac1609_4 	DroppedPacketsInMac 	0
scalar MyScenario.node[16].nic.mac1609_4 	TooLittleTime 	0
scalar MyScenario.node[16].nic.mac1609_4 	TimesIntoBackoff 	1
scalar MyScenario.node[16].nic.mac1609_4 	SlotsBackoff 	0
scalar MyScenario.node[16].nic.mac1609_4 	NumInternalContention 	0
scalar MyScenario.node[16].nic.mac1609_4 	totalBusyTime 	0.000465000452
scalar MyScenario.node[16].veinsmobility 	startTime 	1
scalar MyScenario.node[16].veinsmobility 	totalTime 	58
scalar MyScenario.node[16].veinsmobility 	stopTime 	60
scalar MyScenario.node[16].veinsmobility 	minSpeed 	1.9720092187403
scalar MyScenario.node[16].veinsmobility 	maxSpeed 	13.896466651792
scalar MyScenario.node[16].veinsmobility 	totalDistance 	683.30582513423
scalar MyScenario.node[16].veinsmobility 	totalCO2Emission 	171.63015004402
scalar MyScenario.node[85].appl 	generatedWSMs 	0
scalar MyScenario.node[85].appl 	receivedWSMs 	0
scalar MyScenario.node[85].appl 	generatedBSMs 	0
scalar MyScenario.node[85].appl 	receivedBSMs 	0
scalar MyScenario.node[85].appl 	generatedWSAs 	0
scalar MyScenario.node[85].appl 	receivedWSAs 	0
scalar MyScenario.node[85].nic.phy80211p 	busyTime 	0
scalar MyScenario.node[85].nic.mac1609_4 	ReceivedUnicastPackets 	0
scalar MyScenario.node[85].nic.mac1609_4 	ReceivedBroadcasts 	0
scalar MyScenario.node[85].nic.mac1609_4 	SentPackets 	0
scalar MyScenario.node[85].nic.mac1609_4 	SNIRLostPackets 	0
scalar MyScenario.node[85].nic.mac1609_4 	RXTXLostPackets 	0
scalar MyScenario.node[85].nic.mac1609_4 	TotalLostPackets 	0
scalar MyScenario.node[85].nic.mac1609_4 	DroppedPacketsInMac 	0
scalar MyScenario.node[85].nic.mac1609_4 	TooLittleTime 	0
scalar MyScenario.node[85].nic.mac1609_4 	TimesIntoBackoff 	0
scalar MyScenario.node[85].nic.mac1609_4 	SlotsBackoff 	0
scalar MyScenario.node[85].nic.mac1609_4 	NumInternalContention 	0
scalar MyScenario.node[85].nic.mac1609_4 	totalBusyTime 	0
scalar MyScenario.node[85].veinsmobility 	startTime 	1
scalar MyScenario.node[85].veinsmobility 	totalTime 	59
scalar MyScenario.node[85].veinsmobility 	stopTime 	61
scalar MyScenario.node[85].veinsmobility 	minSpeed 	0.93954683396197
scalar MyScenario.node[85].veinsmobility 	maxSpeed 	13.851785863354
scalar MyScenario.node[85].veinsmobility 	totalDistance 	571.71078791656
scalar MyScenario.node[85].veinsmobility 	totalCO2Emission 	202.22115493313
scalar MyScenario.node[41].appl 	generatedWSMs 	0
scalar MyScenario.node[41].appl 	receivedWSMs 	0
scalar MyScenario.node[41].appl 	generatedBSMs 	0
scalar MyScenario.node[41].appl 	receivedBSMs 	0
scalar MyScenario.node[41].appl 	generatedWSAs 	0
scalar MyScenario.node[41].appl 	receivedWSAs 	0
scalar MyScenario.node[41].nic.phy80211p 	busyTime 	0
scalar MyScenario.node[41].nic.mac1609_4 	ReceivedUnicastPackets 	0
scalar MyScenario.node[41].nic.mac1609_4 	ReceivedBroadcasts 	0
scalar MyScenario.node[41].nic.mac1609_4 	SentPackets 	0
scalar MyScenario.node[41].nic.mac1609_4 	SNIRLostPackets 	0
scalar MyScenario.node[41].nic.mac1609_4 	RXTXLostPackets 	0
scalar MyScenario.node[41].nic.mac1609_4 	TotalLostPackets 	0
scalar MyScenario.node[41].nic.mac1609_4 	DroppedPacketsInMac 	0
scalar MyScenario.node[41].nic.mac1609_4 	TooLittleTime 	0
scalar MyScenario.node[41].nic.mac1609_4 	TimesIntoBackoff 	0
scalar MyScenario.node[41].nic.mac1609_4 	SlotsBackoff 	0
scalar MyScenario.node[41].nic.mac1609_4 	NumInternalContention 	0
scalar MyScenario.node[41].nic.mac1609_4 	totalBusyTime 	0
scalar MyScenario.node[41].veinsmobility 	startTime 	1
scalar MyScenario.node[41].veinsmobility 	totalTime 	59
scalar MyScenario.node[41].veinsmobility 	stopTime 	61
scalar MyScenario.node[41].veinsmobility 	minSpeed 	1.8645053305663
scalar MyScenario.node[41].veinsmobility 	maxSpeed 	13.885048846155
scalar MyScenario.node[41].veinsmobility 	totalDistance 	663.18959685891
scalar MyScenario.node[41].veinsmobility 	totalCO2Emission 	206.98367390473
scalar MyScenario.node[30].appl 	generatedWSMs 	0
scalar MyScenario.node[30].appl 	receivedWSMs 	0
scalar MyScenario.node[30].appl 	generatedBSMs 	0
scalar MyScenario.node[30].appl 	receivedBSMs 	0
scalar MyScenario.node[30].appl 	generatedWSAs 	0
scalar MyScenario.node[30].appl 	receivedWSAs 	0
scalar MyScenario.node[30].nic.phy80211p 	busyTime 	0
scalar MyScenario.node[30].nic.mac1609_4 	ReceivedUnicastPackets 	0
scalar MyScenario.node[30].nic.mac1609_4 	ReceivedBroadcasts 	0
scalar MyScenario.node[30].nic.mac1609_4 	SentPackets 	0
scalar MyScenario.node[30].nic.mac1609_4 	SNIRLostPackets 	0
scalar MyScenario.node[30].nic.mac1609_4 	RXTXLostPackets 	0
scalar MyScenario.node[30].nic.mac1609_4 	TotalLostPackets 	0
scalar MyScenario.node[30].nic.mac1609_4 	DroppedPacketsInMac 	0
scalar MyScenario.node[30].nic.mac1609_4 	TooLittleTime 	0
scalar MyScenario.node[30].nic.mac1609_4 	TimesIntoBackoff 	0
scalar MyScenario.node[30].nic.mac1609_4 	SlotsBackoff 	0
scalar MyScenario.node[30].nic.mac1609_4 	NumInternalContention 	0
scalar MyScenario.node[30].nic.mac1609_4 	totalBusyTime 	0
scalar MyScenario.node[30].veinsmobility 	startTime 	1
scalar MyScenario.node[30].veinsmobility 	totalTime 	60
scalar MyScenario.node[30].veinsmobility 	stopTime 	62
scalar MyScenario.node[30].veinsmobility 	minSpeed 	2.448948680493
scalar MyScenario.node[30].veinsmobility 	maxSpeed 	13.897128249379
scalar MyScenario.node[30].veinsmobility 	totalDistance 	674.30800626323
scalar MyScenario.node[30].veinsmobility 	totalCO2Emission 	203.87093810726
scalar MyScenario.node[59].appl 	generatedWSMs 	0
scalar MyScenario.node[59].appl 	receivedWSMs 	0
scalar MyScenario.node[59].appl 	generatedBSMs 	0
scalar MyScenario.node[59].appl 	receivedBSMs 	0
scalar MyScenario.node[59].appl 	generatedWSAs 	0
scalar MyScenario.node[59].appl 	receivedWSAs 	0
scalar MyScenario.node[59].nic.phy80211p 	busyTime 	1.1225806451613e-05
scalar MyScenario.node[59].nic.mac1609_4 	ReceivedUnicastPackets 	0
scalar MyScenario.node[59].nic.mac1609_4 	ReceivedBroadcasts 	0
scalar MyScenario.node[59].nic.mac1609_4 	SentPackets 	0
scalar MyScenario.node[59].nic.mac1609_4 	SNIRLostPackets 	3
scalar MyScenario.node[59].nic.mac1609_4 	RXTXLostPackets 	0
scalar MyScenario.node[59].nic.mac1609_4 	TotalLostPackets 	3
scalar MyScenario.node[59].nic.mac1609_4 	DroppedPacketsInMac 	0
scalar MyScenario.node[59].nic.mac1609_4 	TooLittleTime 	0
scalar MyScenario.node[59].nic.mac1609_4 	TimesIntoBackoff 	0
scalar MyScenario.node[59].nic.mac1609_4 	SlotsBackoff 	0
scalar MyScenario.node[59].nic.mac1609_4 	NumInternalContention 	0
scalar MyScenario.node[59].nic.mac1609_4 	totalBusyTime 	0.000232
scalar MyScenario.node[59].veinsmobility 	startTime 	1
scalar MyScenario.node[59].veinsmobility 	totalTime 	61
scalar MyScenario.node[59].veinsmobility 	stopTime 	63
scalar MyScenario.node[59].veinsmobility 	minSpeed 	2.1452258290024
scalar MyScenario.node[59].veinsmobility 	maxSpeed 	13.883391797845
scalar MyScenario.node[59].veinsmobility 	totalDistance 	670.27373161372
scalar MyScenario.node[59].veinsmobility 	totalCO2Emission 	206.07899012092
scalar MyScenario.node[80].appl 	generatedWSMs 	0
scalar MyScenario.node[80].appl 	receivedWSMs 	0
scalar MyScenario.node[80].appl 	generatedBSMs 	0
scalar MyScenario.node[80].appl 	receivedBSMs 	0
scalar MyScenario.node[80].appl 	generatedWSAs 	0
scalar MyScenario.node[80].appl 	receivedWSAs 	0
scalar MyScenario.node[80].nic.phy80211p 	busyTime 	0
scalar MyScenario.node[80].nic.mac1609_4 	ReceivedUnicastPackets 	0
scalar MyScenario.node[80].nic.mac1609_4 	ReceivedBroadcasts 	0
scalar MyScenario.node[80].nic.mac1609_4 	SentPackets 	0
scalar MyScenario.node[80].nic.mac1609_4 	SNIRLostPackets 	0
scalar MyScenario.node[80].nic.mac1609_4 	RXTXLostPackets 	0
scalar MyScenario.node[80].nic.mac1609_4 	TotalLostPackets 	0
scalar MyScenario.node[80].nic.mac1609_4 	DroppedPacketsInMac 	0
scalar MyScenario.node[80].nic.mac1609_4 	TooLittleTime 	0
scalar MyScenario.node[80].nic.mac1609_4 	TimesIntoBackoff 	0
scalar MyScenario.node[80].nic.mac1609_4 	SlotsBackoff 	0
scalar MyScenario.node[80].nic.mac1609_4 	NumInternalContention 	0
scalar MyScenario.node[80].nic.mac1609_4 	totalBusyTime 	0
scalar MyScenario.node[80].veinsmobility 	startTime 	1
scalar MyScenario.node[80].veinsmobility 	totalTime 	61
scalar MyScenario.node[80].veinsmobility 	stopTime 	63
scalar MyScenario.node[80].veinsmobility 	minSpeed 	1.951870482089
scalar MyScenario.node[80].veinsmobility 	maxSpeed 	13.873721904401
scalar MyScenario.node[80].veinsmobility 	totalDistance 	667.05570391316
scalar MyScenario.node[80].veinsmobility 	totalCO2Emission 	222.85441214032
scalar MyScenario.node[46].appl 	generatedWSMs 	0
scalar MyScenario.node[46].appl 	receivedWSMs 	0
scalar MyScenario.node[46].appl 	generatedBSMs 	0
scalar MyScenario.node[46].appl 	receivedBSMs 	0
scalar MyScenario.node[46].appl 	generatedWSAs 	0
scalar MyScenario.node[46].appl 	receivedWSAs 	0
scalar MyScenario.node[46].nic.phy80211p 	busyTime 	0
scalar MyScenario.node[46].nic.mac1609_4 	ReceivedUnicastPackets 	0
scalar MyScenario.node[46].nic.mac1609_4 	ReceivedBroadcasts 	0
scalar MyScenario.node[46].nic.mac1609_4 	SentPackets 	0
scalar MyScenario.node[46].nic.mac1609_4 	SNIRLostPackets 	0
scalar MyScenario.node[46].nic.mac1609_4 	RXTXLostPackets 	0
scalar MyScenario.node[46].nic.mac1609_4 	TotalLostPackets 	0
scalar MyScenario.node[46].nic.mac1609_4 	DroppedPacketsInMac 	0
scalar MyScenario.node[46].nic.mac1609_4 	TooLittleTime 	0
scalar MyScenario.node[46].nic.mac1609_4 	TimesIntoBackoff 	0
scalar MyScenario.node[46].nic.mac1609_4 	SlotsBackoff 	0
scalar MyScenario.node[46].nic.mac1609_4 	NumInternalContention 	0
scalar MyScenario.node[46].nic.mac1609_4 	totalBusyTime 	0
scalar MyScenario.node[46].veinsmobility 	startTime 	1
scalar MyScenario.node[46].veinsmobility 	totalTime 	62
scalar MyScenario.node[46].veinsmobility 	stopTime 	64
scalar MyScenario.node[46].veinsmobility 	minSpeed 	0.98744159174814
scalar MyScenario.node[46].veinsmobility 	maxSpeed 	13.890011213371
scalar MyScenario.node[46].veinsmobility 	totalDistance 	679.35459518903
scalar MyScenario.node[46].veinsmobility 	totalCO2Emission 	194.62463900207
scalar MyScenario.node[28].appl 	generatedWSMs 	0
scalar MyScenario.node[28].appl 	receivedWSMs 	0
scalar MyScenario.node[28].appl 	generatedBSMs 	0
scalar MyScenario.node[28].appl 	receivedBSMs 	0
scalar MyScenario.node[28].appl 	generatedWSAs 	0
scalar MyScenario.node[28].appl 	receivedWSAs 	0
scalar MyScenario.node[28].nic.phy80211p 	busyTime 	1.1047619047619e-05
scalar MyScenario.node[28].nic.mac1609_4 	ReceivedUnicastPackets 	0
scalar MyScenario.node[28].nic.mac1609_4 	ReceivedBroadcasts 	0
scalar MyScenario.node[28].nic.mac1609_4 	SentPackets 	0
scalar MyScenario.node[28].nic.mac1609_4 	SNIRLostPackets 	3
scalar MyScenario.node[28].nic.mac1609_4 	RXTXLostPackets 	0
scalar MyScenario.node[28].nic.mac1609_4 	TotalLostPackets 	3
scalar MyScenario.node[28].nic.mac1609_4 	DroppedPacketsInMac 	0
scalar MyScenario.node[28].nic.mac1609_4 	TooLittleTime 	0
scalar MyScenario.node[28].nic.mac1609_4 	TimesIntoBackoff 	0
scalar MyScenario.node[28].nic.mac1609_4 	SlotsBackoff 	0
scalar MyScenario.node[28].nic.mac1609_4 	NumInternalContention 	0
scalar MyScenario.node[28].nic.mac1609_4 	totalBusyTime 	0.000232
scalar MyScenario.node[28].veinsmobility 	startTime 	1
scalar MyScenario.node[28].veinsmobility 	totalTime 	62
scalar MyScenario.node[28].veinsmobility 	stopTime 	64
scalar MyScenario.node[28].veinsmobility 	minSpeed 	2.3136019318597
scalar MyScenario.node[28].veinsmobility 	maxSpeed 	13.875405953568
scalar MyScenario.node[28].veinsmobility 	totalDistance 	761.28725753947
scalar MyScenario.node[28].veinsmobility 	totalCO2Emission 	172.88907941598
scalar MyScenario.node[63].appl 	generatedWSMs 	0
scalar MyScenario.node[63].appl 	receivedWSMs 	0
scalar MyScenario.node[63].appl 	generatedBSMs 	0
scalar MyScenario.node[63].appl 	receivedBSMs 	0
scalar MyScenario.node[63].appl 	generatedWSAs 	0
scalar MyScenario.node[63].appl 	receivedWSAs 	0
scalar MyScenario.node[63].nic.phy80211p 	busyTime 	0
scalar MyScenario.node[63].nic.mac1609_4 	ReceivedUnicastPackets 	0
scalar MyScenario.node[63].nic.mac1609_4 	ReceivedBroadcasts 	0
scalar MyScenario.node[63].nic.mac1609_4 	SentPackets 	0
scalar MyScenario.node[63].nic.mac1609_4 	SNIRLostPackets 	0
scalar MyScenario.node[63].nic.mac1609_4 	RXTXLostPackets 	0
scalar MyScenario.node[63].nic.mac1609_4 	TotalLostPackets 	0
scalar MyScenario.node[63].nic.mac1609_4 	DroppedPacketsInMac 	0
scalar MyScenario.node[63].nic.mac1609_4 	TooLittleTime 	0
scalar MyScenario.node[63].nic.mac1609_4 	TimesIntoBackoff 	0
scalar MyScenario.node[63].nic.mac1609_4 	SlotsBackoff 	0
scalar MyScenario.node[63].nic.mac1609_4 	NumInternalContention 	0
scalar MyScenario.node[63].nic.mac1609_4 	totalBusyTime 	0
scalar MyScenario.node[63].veinsmobility 	startTime 	1
scalar MyScenario.node[63].veinsmobility 	totalTime 	62
scalar MyScenario.node[63].veinsmobility 	stopTime 	64
scalar MyScenario.node[63].veinsmobility 	minSpeed 	2.3061843959149
scalar MyScenario.node[63].veinsmobility 	maxSpeed 	13.880725718476
scalar MyScenario.node[63].veinsmobility 	totalDistance 	668.30772188232
scalar MyScenario.node[63].veinsmobility 	totalCO2Emission 	228.00565595332
scalar MyScenario.node[19].appl 	generatedWSMs 	0
scalar MyScenario.node[19].appl 	receivedWSMs 	0
scalar MyScenario.node[19].appl 	generatedBSMs 	0
scalar MyScenario.node[19].appl 	receivedBSMs 	0
scalar MyScenario.node[19].appl 	generatedWSAs 	0
scalar MyScenario.node[19].appl 	receivedWSAs 	0
scalar MyScenario.node[19].nic.phy80211p 	busyTime 	0
scalar MyScenario.node[19].nic.mac1609_4 	ReceivedUnicastPackets 	0
scalar MyScenario.node[19].nic.mac1609_4 	ReceivedBroadcasts 	0
scalar MyScenario.node[19].nic.mac1609_4 	SentPackets 	0
scalar MyScenario.node[19].nic.mac1609_4 	SNIRLostPackets 	0
scalar MyScenario.node[19].nic.mac1609_4 	RXTXLostPackets 	0
scalar MyScenario.node[19].nic.mac1609_4 	TotalLostPackets 	0
scalar MyScenario.node[19].nic.mac1609_4 	DroppedPacketsInMac 	0
scalar MyScenario.node[19].nic.mac1609_4 	TooLittleTime 	0
scalar MyScenario.node[19].nic.mac1609_4 	TimesIntoBackoff 	0
scalar MyScenario.node[19].nic.mac1609_4 	SlotsBackoff 	0
scalar MyScenario.node[19].nic.mac1609_4 	NumInternalContention 	0
scalar MyScenario.node[19].nic.mac1609_4 	totalBusyTime 	0
scalar MyScenario.node[19].veinsmobility 	startTime 	1
scalar MyScenario.node[19].veinsmobility 	totalTime 	62
scalar MyScenario.node[19].veinsmobility 	stopTime 	64
scalar MyScenario.node[19].veinsmobility 	minSpeed 	0.66808264670329
scalar MyScenario.node[19].veinsmobility 	maxSpeed 	13.802977863722
scalar MyScenario.node[19].veinsmobility 	totalDistance 	662.09948126159
scalar MyScenario.node[19].veinsmobility 	totalCO2Emission 	213.89841406767
scalar MyScenario.node[56].appl 	generatedWSMs 	0
scalar MyScenario.node[56].appl 	receivedWSMs 	0
scalar MyScenario.node[56].appl 	generatedBSMs 	0
scalar MyScenario.node[56].appl 	receivedBSMs 	0
scalar MyScenario.node[56].appl 	generatedWSAs 	0
scalar MyScenario.node[56].appl 	receivedWSAs 	0
scalar MyScenario.node[56].nic.phy80211p 	busyTime 	3.6825396825397e-06
scalar MyScenario.node[56].nic.mac1609_4 	ReceivedUnicastPackets 	0
scalar MyScenario.node[56].nic.mac1609_4 	ReceivedBroadcasts 	0
scalar MyScenario.node[56].nic.mac1609_4 	SentPackets 	0
scalar MyScenario.node[56].nic.mac1609_4 	SNIRLostPackets 	1
scalar MyScenario.node[56].nic.mac1609_4 	RXTXLostPackets 	0
scalar MyScenario.node[56].nic.mac1609_4 	TotalLostPackets 	1
scalar MyScenario.node[56].nic.mac1609_4 	DroppedPacketsInMac 	0
scalar MyScenario.node[56].nic.mac1609_4 	TooLittleTime 	0
scalar MyScenario.node[56].nic.mac1609_4 	TimesIntoBackoff 	0
scalar MyScenario.node[56].nic.mac1609_4 	SlotsBackoff 	0
scalar MyScenario.node[56].nic.mac1609_4 	NumInternalContention 	0
scalar MyScenario.node[56].nic.mac1609_4 	totalBusyTime 	0.000232
scalar MyScenario.node[56].veinsmobility 	startTime 	1
scalar MyScenario.node[56].veinsmobility 	totalTime 	62
scalar MyScenario.node[56].veinsmobility 	stopTime 	64
scalar MyScenario.node[56].veinsmobility 	minSpeed 	0.05187496131207
scalar MyScenario.node[56].veinsmobility 	maxSpeed 	13.899390987889
scalar MyScenario.node[56].veinsmobility 	totalDistance 	671.77645735689
scalar MyScenario.node[56].veinsmobility 	totalCO2Emission 	192.84976576354
scalar MyScenario.node[97].appl 	generatedWSMs 	1
scalar MyScenario.node[97].appl 	receivedWSMs 	3
scalar MyScenario.node[97].appl 	generatedBSMs 	0
scalar MyScenario.node[97].appl 	receivedBSMs 	0
scalar MyScenario.node[97].appl 	generatedWSAs 	0
scalar MyScenario.node[97].appl 	receivedWSAs 	0
scalar MyScenario.node[97].nic.phy80211p 	busyTime 	1.16e-05
scalar MyScenario.node[97].nic.mac1609_4 	ReceivedUnicastPackets 	0
scalar MyScenario.node[97].nic.mac1609_4 	ReceivedBroadcasts 	3
scalar MyScenario.node[97].nic.mac1609_4 	SentPackets 	1
scalar MyScenario.node[97].nic.mac1609_4 	SNIRLostPackets 	0
scalar MyScenario.node[97].nic.mac1609_4 	RXTXLostPackets 	1
scalar MyScenario.node[97].nic.mac1609_4 	TotalLostPackets 	1
scalar MyScenario.node[97].nic.mac1609_4 	DroppedPacketsInMac 	0
scalar MyScenario.node[97].nic.mac1609_4 	TooLittleTime 	0
scalar MyScenario.node[97].nic.mac1609_4 	TimesIntoBackoff 	1
scalar MyScenario.node[97].nic.mac1609_4 	SlotsBackoff 	0
scalar MyScenario.node[97].nic.mac1609_4 	NumInternalContention 	0
scalar MyScenario.node[97].nic.mac1609_4 	totalBusyTime 	0.000929
scalar MyScenario.node[97].veinsmobility 	startTime 	4
scalar MyScenario.node[97].veinsmobility 	totalTime 	59
scalar MyScenario.node[97].veinsmobility 	stopTime 	64
scalar MyScenario.node[97].veinsmobility 	minSpeed 	1.3562281231862
scalar MyScenario.node[97].veinsmobility 	maxSpeed 	13.893327313429
scalar MyScenario.node[97].veinsmobility 	totalDistance 	674.57135434845
scalar MyScenario.node[97].veinsmobility 	totalCO2Emission 	175.29693220752
scalar MyScenario.node[24].appl 	generatedWSMs 	0
scalar MyScenario.node[24].appl 	receivedWSMs 	0
scalar MyScenario.node[24].appl 	generatedBSMs 	0
scalar MyScenario.node[24].appl 	receivedBSMs 	0
scalar MyScenario.node[24].appl 	generatedWSAs 	0
scalar MyScenario.node[24].appl 	receivedWSAs 	0
scalar MyScenario.node[24].nic.phy80211p 	busyTime 	0
scalar MyScenario.node[24].nic.mac1609_4 	ReceivedUnicastPackets 	0
scalar MyScenario.node[24].nic.mac1609_4 	ReceivedBroadcasts 	0
scalar MyScenario.node[24].nic.mac1609_4 	SentPackets 	0
scalar MyScenario.node[24].nic.mac1609_4 	SNIRLostPackets 	0
scalar MyScenario.node[24].nic.mac1609_4 	RXTXLostPackets 	0
scalar MyScenario.node[24].nic.mac1609_4 	TotalLostPackets 	0
scalar MyScenario.node[24].nic.mac1609_4 	DroppedPacketsInMac 	0
scalar MyScenario.node[24].nic.mac1609_4 	TooLittleTime 	0
scalar MyScenario.node[24].nic.mac1609_4 	TimesIntoBackoff 	0
scalar MyScenario.node[24].nic.mac1609_4 	SlotsBackoff 	0
scalar MyScenario.node[24].nic.mac1609_4 	NumInternalContention 	0
scalar MyScenario.node[24].nic.mac1609_4 	totalBusyTime 	0
scalar MyScenario.node[24].veinsmobility 	startTime 	1
scalar MyScenario.node[24].veinsmobility 	totalTime 	63
scalar MyScenario.node[24].veinsmobility 	stopTime 	65
scalar MyScenario.node[24].veinsmobility 	minSpeed 	2.1222872203216
scalar MyScenario.node[24].veinsmobility 	maxSpeed 	13.87956124316
scalar MyScenario.node[24].veinsmobility 	totalDistance 	772.48130774324
scalar MyScenario.node[24].veinsmobility 	totalCO2Emission 	177.33527607255
scalar MyScenario.node[68].appl 	generatedWSMs 	0
scalar MyScenario.node[68].appl 	receivedWSMs 	0
scalar MyScenario.node[68].appl 	generatedBSMs 	0
scalar MyScenario.node[68].appl 	receivedBSMs 	0
scalar MyScenario.node[68].appl 	generatedWSAs 	0
scalar MyScenario.node[68].appl 	receivedWSAs 	0
scalar MyScenario.node[68].nic.phy80211p 	busyTime 	0
scalar MyScenario.node[68].nic.mac1609_4 	ReceivedUnicastPackets 	0
scalar MyScenario.node[68].nic.mac1609_4 	ReceivedBroadcasts 	0
scalar MyScenario.node[68].nic.mac1609_4 	SentPackets 	0
scalar MyScenario.node[68].nic.mac1609_4 	SNIRLostPackets 	0
scalar MyScenario.node[68].nic.mac1609_4 	RXTXLostPackets 	0
scalar MyScenario.node[68].nic.mac1609_4 	TotalLostPackets 	0
scalar MyScenario.node[68].nic.mac1609_4 	DroppedPacketsInMac 	0
scalar MyScenario.node[68].nic.mac1609_4 	TooLittleTime 	0
scalar MyScenario.node[68].nic.mac1609_4 	TimesIntoBackoff 	0
scalar MyScenario.node[68].nic.mac1609_4 	SlotsBackoff 	0
scalar MyScenario.node[68].nic.mac1609_4 	NumInternalContention 	0
scalar MyScenario.node[68].nic.mac1609_4 	totalBusyTime 	0
scalar MyScenario.node[68].veinsmobility 	startTime 	1
scalar MyScenario.node[68].veinsmobility 	totalTime 	63
scalar MyScenario.node[68].veinsmobility 	stopTime 	65
scalar MyScenario.node[68].veinsmobility 	minSpeed 	2.1833026328357
scalar MyScenario.node[68].veinsmobility 	maxSpeed 	13.888638417749
scalar MyScenario.node[68].veinsmobility 	totalDistance 	668.29526966057
scalar MyScenario.node[68].veinsmobility 	totalCO2Emission 	231.48827396856
scalar MyScenario.node[3].appl 	generatedWSMs 	0
scalar MyScenario.node[3].appl 	receivedWSMs 	0
scalar MyScenario.node[3].appl 	generatedBSMs 	0
scalar MyScenario.node[3].appl 	receivedBSMs 	0
scalar MyScenario.node[3].appl 	generatedWSAs 	0
scalar MyScenario.node[3].appl 	receivedWSAs 	0
scalar MyScenario.node[3].nic.phy80211p 	busyTime 	0
scalar MyScenario.node[3].nic.mac1609_4 	ReceivedUnicastPackets 	0
scalar MyScenario.node[3].nic.mac1609_4 	ReceivedBroadcasts 	0
scalar MyScenario.node[3].nic.mac1609_4 	SentPackets 	0
scalar MyScenario.node[3].nic.mac1609_4 	SNIRLostPackets 	0
scalar MyScenario.node[3].nic.mac1609_4 	RXTXLostPackets 	0
scalar MyScenario.node[3].nic.mac1609_4 	TotalLostPackets 	0
scalar MyScenario.node[3].nic.mac1609_4 	DroppedPacketsInMac 	0
scalar MyScenario.node[3].nic.mac1609_4 	TooLittleTime 	0
scalar MyScenario.node[3].nic.mac1609_4 	TimesIntoBackoff 	0
scalar MyScenario.node[3].nic.mac1609_4 	SlotsBackoff 	0
scalar MyScenario.node[3].nic.mac1609_4 	NumInternalContention 	0
scalar MyScenario.node[3].nic.mac1609_4 	totalBusyTime 	0
scalar MyScenario.node[3].veinsmobility 	startTime 	1
scalar MyScenario.node[3].veinsmobility 	totalTime 	63
scalar MyScenario.node[3].veinsmobility 	stopTime 	65
scalar MyScenario.node[3].veinsmobility 	minSpeed 	2.4964608877664
scalar MyScenario.node[3].veinsmobility 	maxSpeed 	13.883301507239
scalar MyScenario.node[3].veinsmobility 	totalDistance 	782.57692202496
scalar MyScenario.node[3].veinsmobility 	totalCO2Emission 	172.89923162352
scalar MyScenario.node[52].appl 	generatedWSMs 	0
scalar MyScenario.node[52].appl 	receivedWSMs 	0
scalar MyScenario.node[52].appl 	generatedBSMs 	0
scalar MyScenario.node[52].appl 	receivedBSMs 	0
scalar MyScenario.node[52].appl 	generatedWSAs 	0
scalar MyScenario.node[52].appl 	receivedWSAs 	0
scalar MyScenario.node[52].nic.phy80211p 	busyTime 	0
scalar MyScenario.node[52].nic.mac1609_4 	ReceivedUnicastPackets 	0
scalar MyScenario.node[52].nic.mac1609_4 	ReceivedBroadcasts 	0
scalar MyScenario.node[52].nic.mac1609_4 	SentPackets 	0
scalar MyScenario.node[52].nic.mac1609_4 	SNIRLostPackets 	0
scalar MyScenario.node[52].nic.mac1609_4 	RXTXLostPackets 	0
scalar MyScenario.node[52].nic.mac1609_4 	TotalLostPackets 	0
scalar MyScenario.node[52].nic.mac1609_4 	DroppedPacketsInMac 	0
scalar MyScenario.node[52].nic.mac1609_4 	TooLittleTime 	0
scalar MyScenario.node[52].nic.mac1609_4 	TimesIntoBackoff 	0
scalar MyScenario.node[52].nic.mac1609_4 	SlotsBackoff 	0
scalar MyScenario.node[52].nic.mac1609_4 	NumInternalContention 	0
scalar MyScenario.node[52].nic.mac1609_4 	totalBusyTime 	0
scalar MyScenario.node[52].veinsmobility 	startTime 	1
scalar MyScenario.node[52].veinsmobility 	totalTime 	65
scalar MyScenario.node[52].veinsmobility 	stopTime 	67
scalar MyScenario.node[52].veinsmobility 	minSpeed 	1.9574921074789
scalar MyScenario.node[52].veinsmobility 	maxSpeed 	13.889202947123
scalar MyScenario.node[52].veinsmobility 	totalDistance 	768.50379431866
scalar MyScenario.node[52].veinsmobility 	totalCO2Emission 	193.89961801147
scalar MyScenario.node[42].appl 	generatedWSMs 	0
scalar MyScenario.node[42].appl 	receivedWSMs 	0
scalar MyScenario.node[42].appl 	generatedBSMs 	0
scalar MyScenario.node[42].appl 	receivedBSMs 	0
scalar MyScenario.node[42].appl 	generatedWSAs 	0
scalar MyScenario.node[42].appl 	receivedWSAs 	0
scalar MyScenario.node[42].nic.phy80211p 	busyTime 	0
scalar MyScenario.node[42].nic.mac1609_4 	ReceivedUnicastPackets 	0
scalar MyScenario.node[42].nic.mac1609_4 	ReceivedBroadcasts 	0
scalar MyScenario.node[42].nic.mac1609_4 	SentPackets 	0
scalar MyScenario.node[42].nic.mac1609_4 	SNIRLostPackets 	0
scalar MyScenario.node[42].nic.mac1609_4 	RXTXLostPackets 	0
scalar MyScenario.node[42].nic.mac1609_4 	TotalLostPackets 	0
scalar MyScenario.node[42].nic.mac1609_4 	DroppedPacketsInMac 	0
scalar MyScenario.node[42].nic.mac1609_4 	TooLittleTime 	0
scalar MyScenario.node[42].nic.mac1609_4 	TimesIntoBackoff 	0
scalar MyScenario.node[42].nic.mac1609_4 	SlotsBackoff 	0
scalar MyScenario.node[42].nic.mac1609_4 	NumInternalContention 	0
scalar MyScenario.node[42].nic.mac1609_4 	totalBusyTime 	0
scalar MyScenario.node[42].veinsmobility 	startTime 	1
scalar MyScenario.node[42].veinsmobility 	totalTime 	67
scalar MyScenario.node[42].veinsmobility 	stopTime 	69
scalar MyScenario.node[42].veinsmobility 	minSpeed 	1.8854387812782
scalar MyScenario.node[42].veinsmobility 	maxSpeed 	13.887229852634
scalar MyScenario.node[42].veinsmobility 	totalDistance 	774.72701117386
scalar MyScenario.node[42].veinsmobility 	totalCO2Emission 	225.01544758809
scalar MyScenario.node[73].appl 	generatedWSMs 	0
scalar MyScenario.node[73].appl 	receivedWSMs 	0
scalar MyScenario.node[73].appl 	generatedBSMs 	0
scalar MyScenario.node[73].appl 	receivedBSMs 	0
scalar MyScenario.node[73].appl 	generatedWSAs 	0
scalar MyScenario.node[73].appl 	receivedWSAs 	0
scalar MyScenario.node[73].nic.phy80211p 	busyTime 	0
scalar MyScenario.node[73].nic.mac1609_4 	ReceivedUnicastPackets 	0
scalar MyScenario.node[73].nic.mac1609_4 	ReceivedBroadcasts 	0
scalar MyScenario.node[73].nic.mac1609_4 	SentPackets 	0
scalar MyScenario.node[73].nic.mac1609_4 	SNIRLostPackets 	0
scalar MyScenario.node[73].nic.mac1609_4 	RXTXLostPackets 	0
scalar MyScenario.node[73].nic.mac1609_4 	TotalLostPackets 	0
scalar MyScenario.node[73].nic.mac1609_4 	DroppedPacketsInMac 	0
scalar MyScenario.node[73].nic.mac1609_4 	TooLittleTime 	0
scalar MyScenario.node[73].nic.mac1609_4 	TimesIntoBackoff 	0
scalar MyScenario.node[73].nic.mac1609_4 	SlotsBackoff 	0
scalar MyScenario.node[73].nic.mac1609_4 	NumInternalContention 	0
scalar MyScenario.node[73].nic.mac1609_4 	totalBusyTime 	0
scalar MyScenario.node[73].veinsmobility 	startTime 	1
scalar MyScenario.node[73].veinsmobility 	totalTime 	69
scalar MyScenario.node[73].veinsmobility 	stopTime 	71
scalar MyScenario.node[73].veinsmobility 	minSpeed 	2.4250460749725
scalar MyScenario.node[73].veinsmobility 	maxSpeed 	13.754676385783
scalar MyScenario.node[73].veinsmobility 	totalDistance 	767.44156918275
scalar MyScenario.node[73].veinsmobility 	totalCO2Emission 	212.53620515402
scalar MyScenario.node[70].appl 	generatedWSMs 	1
scalar MyScenario.node[70].appl 	receivedWSMs 	4
scalar MyScenario.node[70].appl 	generatedBSMs 	0
scalar MyScenario.node[70].appl 	receivedBSMs 	0
scalar MyScenario.node[70].appl 	generatedWSAs 	0
scalar MyScenario.node[70].appl 	receivedWSAs 	0
scalar MyScenario.node[70].nic.phy80211p 	busyTime 	2.6514285714286e-05
scalar MyScenario.node[70].nic.mac1609_4 	ReceivedUnicastPackets 	0
scalar MyScenario.node[70].nic.mac1609_4 	ReceivedBroadcasts 	4
[...]
scalar MyScenario.node[62].appl 	receivedWSAs 	0
scalar MyScenario.node[62].nic.phy80211p 	busyTime 	6.6923076923077e-06
scalar MyScenario.node[62].nic.mac1609_4 	ReceivedUnicastPackets 	0
scalar MyScenario.node[62].nic.mac1609_4 	ReceivedBroadcasts 	0
scalar MyScenario.node[62].nic.mac1609_4 	SentPackets 	0
scalar MyScenario.node[62].nic.mac1609_4 	SNIRLostPackets 	3
scalar MyScenario.node[62].nic.mac1609_4 	RXTXLostPackets 	0
scalar MyScenario.node[62].nic.mac1609_4 	TotalLostPackets 	3
scalar MyScenario.node[62].nic.mac1609_4 	DroppedPacketsInMac 	0
scalar MyScenario.node[62].nic.mac1609_4 	TooLittleTime 	0
scalar MyScenario.node[62].nic.mac1609_4 	TimesIntoBackoff 	0
scalar MyScenario.node[62].nic.mac1609_4 	SlotsBackoff 	0
scalar MyScenario.node[62].nic.mac1609_4 	NumInternalContention 	0
scalar MyScenario.node[62].nic.mac1609_4 	totalBusyTime 	0.000232
scalar MyScenario.node[62].veinsmobility 	startTime 	1
scalar MyScenario.node[62].veinsmobility 	totalTime 	103
scalar MyScenario.node[62].veinsmobility 	stopTime 	105
scalar MyScenario.node[62].veinsmobility 	minSpeed 	1.9907243428519
scalar MyScenario.node[62].veinsmobility 	maxSpeed 	13.899175741058
scalar MyScenario.node[62].veinsmobility 	totalDistance 	1277.7388411186
scalar MyScenario.node[62].veinsmobility 	totalCO2Emission 	284.86218391151
scalar MyScenario.node[88].appl 	generatedWSMs 	0
scalar MyScenario.node[88].appl 	receivedWSMs 	0
scalar MyScenario.node[88].appl 	generatedBSMs 	0
scalar MyScenario.node[88].appl 	receivedBSMs 	0
scalar MyScenario.node[88].appl 	generatedWSAs 	0
scalar MyScenario.node[88].appl 	receivedWSAs 	0
scalar MyScenario.node[88].nic.phy80211p 	busyTime 	6.8910891089109e-06
scalar MyScenario.node[88].nic.mac1609_4 	ReceivedUnicastPackets 	0
scalar MyScenario.node[88].nic.mac1609_4 	ReceivedBroadcasts 	0
scalar MyScenario.node[88].nic.mac1609_4 	SentPackets 	0
scalar MyScenario.node[88].nic.mac1609_4 	SNIRLostPackets 	3
scalar MyScenario.node[88].nic.mac1609_4 	RXTXLostPackets 	0
scalar MyScenario.node[88].nic.mac1609_4 	TotalLostPackets 	3
scalar MyScenario.node[88].nic.mac1609_4 	DroppedPacketsInMac 	0
scalar MyScenario.node[88].nic.mac1609_4 	TooLittleTime 	0
scalar MyScenario.node[88].nic.mac1609_4 	TimesIntoBackoff 	0
scalar MyScenario.node[88].nic.mac1609_4 	SlotsBackoff 	0
scalar MyScenario.node[88].nic.mac1609_4 	NumInternalContention 	0
scalar MyScenario.node[88].nic.mac1609_4 	totalBusyTime 	0.000232
scalar MyScenario.node[88].veinsmobility 	startTime 	4
scalar MyScenario.node[88].veinsmobility 	totalTime 	100
scalar MyScenario.node[88].veinsmobility 	stopTime 	105
scalar MyScenario.node[88].veinsmobility 	minSpeed 	2.1288444030564
scalar MyScenario.node[88].veinsmobility 	maxSpeed 	13.895663924282
scalar MyScenario.node[88].veinsmobility 	totalDistance 	1260.7927385572
scalar MyScenario.node[88].veinsmobility 	totalCO2Emission 	267.7240496201
scalar MyScenario.node[50].appl 	generatedWSMs 	0
scalar MyScenario.node[50].appl 	receivedWSMs 	0
scalar MyScenario.node[50].appl 	generatedBSMs 	0
scalar MyScenario.node[50].appl 	receivedBSMs 	0
scalar MyScenario.node[50].appl 	generatedWSAs 	0
scalar MyScenario.node[50].appl 	receivedWSAs 	0
scalar MyScenario.node[50].nic.phy80211p 	busyTime 	0
scalar MyScenario.node[50].nic.mac1609_4 	ReceivedUnicastPackets 	0
scalar MyScenario.node[50].nic.mac1609_4 	ReceivedBroadcasts 	0
scalar MyScenario.node[50].nic.mac1609_4 	SentPackets 	0
scalar MyScenario.node[50].nic.mac1609_4 	SNIRLostPackets 	0
scalar MyScenario.node[50].nic.mac1609_4 	RXTXLostPackets 	0
scalar MyScenario.node[50].nic.mac1609_4 	TotalLostPackets 	0
scalar MyScenario.node[50].nic.mac1609_4 	DroppedPacketsInMac 	0
scalar MyScenario.node[50].nic.mac1609_4 	TooLittleTime 	0
scalar MyScenario.node[50].nic.mac1609_4 	TimesIntoBackoff 	0
scalar MyScenario.node[50].nic.mac1609_4 	SlotsBackoff 	0
scalar MyScenario.node[50].nic.mac1609_4 	NumInternalContention 	0
scalar MyScenario.node[50].nic.mac1609_4 	totalBusyTime 	0
scalar MyScenario.node[50].veinsmobility 	startTime 	1
scalar MyScenario.node[50].veinsmobility 	totalTime 	105
scalar MyScenario.node[50].veinsmobility 	stopTime 	107
scalar MyScenario.node[50].veinsmobility 	minSpeed 	0.80526243971888
scalar MyScenario.node[50].veinsmobility 	maxSpeed 	13.892518776888
scalar MyScenario.node[50].veinsmobility 	totalDistance 	1078.3393483171
scalar MyScenario.node[50].veinsmobility 	totalCO2Emission 	370.5962550706
scalar MyScenario.node[81].appl 	generatedWSMs 	0
scalar MyScenario.node[81].appl 	receivedWSMs 	0
scalar MyScenario.node[81].appl 	generatedBSMs 	0
scalar MyScenario.node[81].appl 	receivedBSMs 	0
scalar MyScenario.node[81].appl 	generatedWSAs 	0
scalar MyScenario.node[81].appl 	receivedWSAs 	0
scalar MyScenario.node[81].nic.phy80211p 	busyTime 	0
scalar MyScenario.node[81].nic.mac1609_4 	ReceivedUnicastPackets 	0
scalar MyScenario.node[81].nic.mac1609_4 	ReceivedBroadcasts 	0
scalar MyScenario.node[81].nic.mac1609_4 	SentPackets 	0
scalar MyScenario.node[81].nic.mac1609_4 	SNIRLostPackets 	0
scalar MyScenario.node[81].nic.mac1609_4 	RXTXLostPackets 	0
scalar MyScenario.node[81].nic.mac1609_4 	TotalLostPackets 	0
scalar MyScenario.node[81].nic.mac1609_4 	DroppedPacketsInMac 	0
scalar MyScenario.node[81].nic.mac1609_4 	TooLittleTime 	0
scalar MyScenario.node[81].nic.mac1609_4 	TimesIntoBackoff 	0
scalar MyScenario.node[81].nic.mac1609_4 	SlotsBackoff 	0
scalar MyScenario.node[81].nic.mac1609_4 	NumInternalContention 	0
scalar MyScenario.node[81].nic.mac1609_4 	totalBusyTime 	0
scalar MyScenario.node[81].veinsmobility 	startTime 	1
scalar MyScenario.node[81].veinsmobility 	totalTime 	108
scalar MyScenario.node[81].veinsmobility 	stopTime 	110
scalar MyScenario.node[81].veinsmobility 	minSpeed 	1.7774409501813
scalar MyScenario.node[81].veinsmobility 	maxSpeed 	13.895305164228
scalar MyScenario.node[81].veinsmobility 	totalDistance 	1272.1174190927
scalar MyScenario.node[81].veinsmobility 	totalCO2Emission 	349.97879495632
scalar MyScenario.node[44].appl 	generatedWSMs 	0
scalar MyScenario.node[44].appl 	receivedWSMs 	0
scalar MyScenario.node[44].appl 	generatedBSMs 	0
scalar MyScenario.node[44].appl 	receivedBSMs 	0
scalar MyScenario.node[44].appl 	generatedWSAs 	0
scalar MyScenario.node[44].appl 	receivedWSAs 	0
scalar MyScenario.node[44].nic.phy80211p 	busyTime 	0
scalar MyScenario.node[44].nic.mac1609_4 	ReceivedUnicastPackets 	0
scalar MyScenario.node[44].nic.mac1609_4 	ReceivedBroadcasts 	0
scalar MyScenario.node[44].nic.mac1609_4 	SentPackets 	0
scalar MyScenario.node[44].nic.mac1609_4 	SNIRLostPackets 	0
scalar MyScenario.node[44].nic.mac1609_4 	RXTXLostPackets 	0
scalar MyScenario.node[44].nic.mac1609_4 	TotalLostPackets 	0
scalar MyScenario.node[44].nic.mac1609_4 	DroppedPacketsInMac 	0
scalar MyScenario.node[44].nic.mac1609_4 	TooLittleTime 	0
scalar MyScenario.node[44].nic.mac1609_4 	TimesIntoBackoff 	0
scalar MyScenario.node[44].nic.mac1609_4 	SlotsBackoff 	0
scalar MyScenario.node[44].nic.mac1609_4 	NumInternalContention 	0
scalar MyScenario.node[44].nic.mac1609_4 	totalBusyTime 	0
scalar MyScenario.node[44].veinsmobility 	startTime 	1
scalar MyScenario.node[44].veinsmobility 	totalTime 	111
scalar MyScenario.node[44].veinsmobility 	stopTime 	113
scalar MyScenario.node[44].veinsmobility 	minSpeed 	2.0535218579695
scalar MyScenario.node[44].veinsmobility 	maxSpeed 	13.894621688034
scalar MyScenario.node[44].veinsmobility 	totalDistance 	1272.6410741646
scalar MyScenario.node[44].veinsmobility 	totalCO2Emission 	380.7443346323
scalar MyScenario.node[65].appl 	generatedWSMs 	1
scalar MyScenario.node[65].appl 	receivedWSMs 	5
scalar MyScenario.node[65].appl 	generatedBSMs 	0
scalar MyScenario.node[65].appl 	receivedBSMs 	0
scalar MyScenario.node[65].appl 	generatedWSAs 	0
scalar MyScenario.node[65].appl 	receivedWSAs 	0
scalar MyScenario.node[65].nic.phy80211p 	busyTime 	1.2318584070796e-05
scalar MyScenario.node[65].nic.mac1609_4 	ReceivedUnicastPackets 	0
scalar MyScenario.node[65].nic.mac1609_4 	ReceivedBroadcasts 	5
scalar MyScenario.node[65].nic.mac1609_4 	SentPackets 	1
scalar MyScenario.node[65].nic.mac1609_4 	SNIRLostPackets 	1
scalar MyScenario.node[65].nic.mac1609_4 	RXTXLostPackets 	7
scalar MyScenario.node[65].nic.mac1609_4 	TotalLostPackets 	8
scalar MyScenario.node[65].nic.mac1609_4 	DroppedPacketsInMac 	0
scalar MyScenario.node[65].nic.mac1609_4 	TooLittleTime 	0
scalar MyScenario.node[65].nic.mac1609_4 	TimesIntoBackoff 	1
scalar MyScenario.node[65].nic.mac1609_4 	SlotsBackoff 	0
scalar MyScenario.node[65].nic.mac1609_4 	NumInternalContention 	0
scalar MyScenario.node[65].nic.mac1609_4 	totalBusyTime 	0.001393
scalar MyScenario.node[65].veinsmobility 	startTime 	1
scalar MyScenario.node[65].veinsmobility 	totalTime 	112
scalar MyScenario.node[65].veinsmobility 	stopTime 	114
scalar MyScenario.node[65].veinsmobility 	minSpeed 	4.441351835814e-05
scalar MyScenario.node[65].veinsmobility 	maxSpeed 	13.895354529191
scalar MyScenario.node[65].veinsmobility 	totalDistance 	1074.440412332
scalar MyScenario.node[65].veinsmobility 	totalCO2Emission 	359.40665069419
scalar MyScenario.node[8].appl 	generatedWSMs 	0
scalar MyScenario.node[8].appl 	receivedWSMs 	0
scalar MyScenario.node[8].appl 	generatedBSMs 	0
scalar MyScenario.node[8].appl 	receivedBSMs 	0
scalar MyScenario.node[8].appl 	generatedWSAs 	0
scalar MyScenario.node[8].appl 	receivedWSAs 	0
scalar MyScenario.node[8].nic.phy80211p 	busyTime 	0
scalar MyScenario.node[8].nic.mac1609_4 	ReceivedUnicastPackets 	0
scalar MyScenario.node[8].nic.mac1609_4 	ReceivedBroadcasts 	0
scalar MyScenario.node[8].nic.mac1609_4 	SentPackets 	0
scalar MyScenario.node[8].nic.mac1609_4 	SNIRLostPackets 	0
scalar MyScenario.node[8].nic.mac1609_4 	RXTXLostPackets 	0
scalar MyScenario.node[8].nic.mac1609_4 	TotalLostPackets 	0
scalar MyScenario.node[8].nic.mac1609_4 	DroppedPacketsInMac 	0
scalar MyScenario.node[8].nic.mac1609_4 	TooLittleTime 	0
scalar MyScenario.node[8].nic.mac1609_4 	TimesIntoBackoff 	0
scalar MyScenario.node[8].nic.mac1609_4 	SlotsBackoff 	0
scalar MyScenario.node[8].nic.mac1609_4 	NumInternalContention 	0
scalar MyScenario.node[8].nic.mac1609_4 	totalBusyTime 	0
scalar MyScenario.node[8].veinsmobility 	startTime 	1
scalar MyScenario.node[8].veinsmobility 	totalTime 	115
scalar MyScenario.node[8].veinsmobility 	stopTime 	117
scalar MyScenario.node[8].veinsmobility 	minSpeed 	2.0434409694979
scalar MyScenario.node[8].veinsmobility 	maxSpeed 	13.898226313107
scalar MyScenario.node[8].veinsmobility 	totalDistance 	1459.8381996685
scalar MyScenario.node[8].veinsmobility 	totalCO2Emission 	307.02893460624
scalar MyScenario.node[26].appl 	generatedWSMs 	0
scalar MyScenario.node[26].appl 	receivedWSMs 	0
scalar MyScenario.node[26].appl 	generatedBSMs 	0
scalar MyScenario.node[26].appl 	receivedBSMs 	0
scalar MyScenario.node[26].appl 	generatedWSAs 	0
scalar MyScenario.node[26].appl 	receivedWSAs 	0
scalar MyScenario.node[26].nic.phy80211p 	busyTime 	0
scalar MyScenario.node[26].nic.mac1609_4 	ReceivedUnicastPackets 	0
scalar MyScenario.node[26].nic.mac1609_4 	ReceivedBroadcasts 	0
scalar MyScenario.node[26].nic.mac1609_4 	SentPackets 	0
scalar MyScenario.node[26].nic.mac1609_4 	SNIRLostPackets 	0
scalar MyScenario.node[26].nic.mac1609_4 	RXTXLostPackets 	0
scalar MyScenario.node[26].nic.mac1609_4 	TotalLostPackets 	0
scalar MyScenario.node[26].nic.mac1609_4 	DroppedPacketsInMac 	0
scalar MyScenario.node[26].nic.mac1609_4 	TooLittleTime 	0
scalar MyScenario.node[26].nic.mac1609_4 	TimesIntoBackoff 	0
scalar MyScenario.node[26].nic.mac1609_4 	SlotsBackoff 	0
scalar MyScenario.node[26].nic.mac1609_4 	NumInternalContention 	0
scalar MyScenario.node[26].nic.mac1609_4 	totalBusyTime 	0
scalar MyScenario.node[26].veinsmobility 	startTime 	1
scalar MyScenario.node[26].veinsmobility 	totalTime 	116
scalar MyScenario.node[26].veinsmobility 	stopTime 	118
scalar MyScenario.node[26].veinsmobility 	minSpeed 	1.3460835929494
scalar MyScenario.node[26].veinsmobility 	maxSpeed 	13.89688924551
scalar MyScenario.node[26].veinsmobility 	totalDistance 	1357.7960798611
scalar MyScenario.node[26].veinsmobility 	totalCO2Emission 	360.64809057534
scalar MyScenario.node[48].appl 	generatedWSMs 	0
scalar MyScenario.node[48].appl 	receivedWSMs 	0
scalar MyScenario.node[48].appl 	generatedBSMs 	0
scalar MyScenario.node[48].appl 	receivedBSMs 	0
scalar MyScenario.node[48].appl 	generatedWSAs 	0
scalar MyScenario.node[48].appl 	receivedWSAs 	0
scalar MyScenario.node[48].nic.phy80211p 	busyTime 	0
scalar MyScenario.node[48].nic.mac1609_4 	ReceivedUnicastPackets 	0
scalar MyScenario.node[48].nic.mac1609_4 	ReceivedBroadcasts 	0
scalar MyScenario.node[48].nic.mac1609_4 	SentPackets 	0
scalar MyScenario.node[48].nic.mac1609_4 	SNIRLostPackets 	0
scalar MyScenario.node[48].nic.mac1609_4 	RXTXLostPackets 	0
scalar MyScenario.node[48].nic.mac1609_4 	TotalLostPackets 	0
scalar MyScenario.node[48].nic.mac1609_4 	DroppedPacketsInMac 	0
scalar MyScenario.node[48].nic.mac1609_4 	TooLittleTime 	0
scalar MyScenario.node[48].nic.mac1609_4 	TimesIntoBackoff 	0
scalar MyScenario.node[48].nic.mac1609_4 	SlotsBackoff 	0
scalar MyScenario.node[48].nic.mac1609_4 	NumInternalContention 	0
scalar MyScenario.node[48].nic.mac1609_4 	totalBusyTime 	0
scalar MyScenario.node[48].veinsmobility 	startTime 	1
scalar MyScenario.node[48].veinsmobility 	totalTime 	116
scalar MyScenario.node[48].veinsmobility 	stopTime 	118
scalar MyScenario.node[48].veinsmobility 	minSpeed 	1.9692713107215
scalar MyScenario.node[48].veinsmobility 	maxSpeed 	13.87809390882
scalar MyScenario.node[48].veinsmobility 	totalDistance 	1362.8340538239
scalar MyScenario.node[48].veinsmobility 	totalCO2Emission 	345.12745664088
scalar MyScenario.node[18].appl 	generatedWSMs 	0
scalar MyScenario.node[18].appl 	receivedWSMs 	0
scalar MyScenario.node[18].appl 	generatedBSMs 	0
scalar MyScenario.node[18].appl 	receivedBSMs 	0
scalar MyScenario.node[18].appl 	generatedWSAs 	0
scalar MyScenario.node[18].appl 	receivedWSAs 	0
scalar MyScenario.node[18].nic.phy80211p 	busyTime 	0
scalar MyScenario.node[18].nic.mac1609_4 	ReceivedUnicastPackets 	0
scalar MyScenario.node[18].nic.mac1609_4 	ReceivedBroadcasts 	0
scalar MyScenario.node[18].nic.mac1609_4 	SentPackets 	0
scalar MyScenario.node[18].nic.mac1609_4 	SNIRLostPackets 	0
scalar MyScenario.node[18].nic.mac1609_4 	RXTXLostPackets 	0
scalar MyScenario.node[18].nic.mac1609_4 	TotalLostPackets 	0
scalar MyScenario.node[18].nic.mac1609_4 	DroppedPacketsInMac 	0
scalar MyScenario.node[18].nic.mac1609_4 	TooLittleTime 	0
scalar MyScenario.node[18].nic.mac1609_4 	TimesIntoBackoff 	0
scalar MyScenario.node[18].nic.mac1609_4 	SlotsBackoff 	0
scalar MyScenario.node[18].nic.mac1609_4 	NumInternalContention 	0
scalar MyScenario.node[18].nic.mac1609_4 	totalBusyTime 	0
scalar MyScenario.node[18].veinsmobility 	startTime 	1
scalar MyScenario.node[18].veinsmobility 	totalTime 	118
scalar MyScenario.node[18].veinsmobility 	stopTime 	120
scalar MyScenario.node[18].veinsmobility 	minSpeed 	1.9431800845079
scalar MyScenario.node[18].veinsmobility 	maxSpeed 	13.896105293231
scalar MyScenario.node[18].veinsmobility 	totalDistance 	1367.837783787
scalar MyScenario.node[18].veinsmobility 	totalCO2Emission 	358.21832414867
scalar MyScenario.node[34].appl 	generatedWSMs 	0
scalar MyScenario.node[34].appl 	receivedWSMs 	0
scalar MyScenario.node[34].appl 	generatedBSMs 	0
scalar MyScenario.node[34].appl 	receivedBSMs 	0
scalar MyScenario.node[34].appl 	generatedWSAs 	0
scalar MyScenario.node[34].appl 	receivedWSAs 	0
scalar MyScenario.node[34].nic.phy80211p 	busyTime 	1.1697478991597e-05
scalar MyScenario.node[34].nic.mac1609_4 	ReceivedUnicastPackets 	0
scalar MyScenario.node[34].nic.mac1609_4 	ReceivedBroadcasts 	0
scalar MyScenario.node[34].nic.mac1609_4 	SentPackets 	0
scalar MyScenario.node[34].nic.mac1609_4 	SNIRLostPackets 	6
scalar MyScenario.node[34].nic.mac1609_4 	RXTXLostPackets 	0
scalar MyScenario.node[34].nic.mac1609_4 	TotalLostPackets 	6
scalar MyScenario.node[34].nic.mac1609_4 	DroppedPacketsInMac 	0
scalar MyScenario.node[34].nic.mac1609_4 	TooLittleTime 	0
scalar MyScenario.node[34].nic.mac1609_4 	TimesIntoBackoff 	0
scalar MyScenario.node[34].nic.mac1609_4 	SlotsBackoff 	0
scalar MyScenario.node[34].nic.mac1609_4 	NumInternalContention 	0
scalar MyScenario.node[34].nic.mac1609_4 	totalBusyTime 	0.000464
scalar MyScenario.node[34].veinsmobility 	startTime 	1
scalar MyScenario.node[34].veinsmobility 	totalTime 	118
scalar MyScenario.node[34].veinsmobility 	stopTime 	120
scalar MyScenario.node[34].veinsmobility 	minSpeed 	1.7494539632695
scalar MyScenario.node[34].veinsmobility 	maxSpeed 	13.89206828184
scalar MyScenario.node[34].veinsmobility 	totalDistance 	1362.0971414781
scalar MyScenario.node[34].veinsmobility 	totalCO2Emission 	376.90344321194
scalar MyScenario.node[90].appl 	generatedWSMs 	0
scalar MyScenario.node[90].appl 	receivedWSMs 	0
scalar MyScenario.node[90].appl 	generatedBSMs 	0
scalar MyScenario.node[90].appl 	receivedBSMs 	0
scalar MyScenario.node[90].appl 	generatedWSAs 	0
scalar MyScenario.node[90].appl 	receivedWSAs 	0
scalar MyScenario.node[90].nic.phy80211p 	busyTime 	0
scalar MyScenario.node[90].nic.mac1609_4 	ReceivedUnicastPackets 	0
scalar MyScenario.node[90].nic.mac1609_4 	ReceivedBroadcasts 	0
scalar MyScenario.node[90].nic.mac1609_4 	SentPackets 	0
scalar MyScenario.node[90].nic.mac1609_4 	SNIRLostPackets 	0
scalar MyScenario.node[90].nic.mac1609_4 	RXTXLostPackets 	0
scalar MyScenario.node[90].nic.mac1609_4 	TotalLostPackets 	0
scalar MyScenario.node[90].nic.mac1609_4 	DroppedPacketsInMac 	0
scalar MyScenario.node[90].nic.mac1609_4 	TooLittleTime 	0
scalar MyScenario.node[90].nic.mac1609_4 	TimesIntoBackoff 	0
scalar MyScenario.node[90].nic.mac1609_4 	SlotsBackoff 	0
scalar MyScenario.node[90].nic.mac1609_4 	NumInternalContention 	0
scalar MyScenario.node[90].nic.mac1609_4 	totalBusyTime 	0
scalar MyScenario.node[90].veinsmobility 	startTime 	4
scalar MyScenario.node[90].veinsmobility 	totalTime 	124
scalar MyScenario.node[90].veinsmobility 	stopTime 	129
scalar MyScenario.node[90].veinsmobility 	minSpeed 	1.6796374731464
scalar MyScenario.node[90].veinsmobility 	maxSpeed 	13.890400826489
scalar MyScenario.node[90].veinsmobility 	totalDistance 	1470.8553054074
scalar MyScenario.node[90].veinsmobility 	totalCO2Emission 	389.95886154475
scalar MyScenario.node[32].appl 	generatedWSMs 	0
scalar MyScenario.node[32].appl 	receivedWSMs 	0
scalar MyScenario.node[32].appl 	generatedBSMs 	0
scalar MyScenario.node[32].appl 	receivedBSMs 	0
scalar MyScenario.node[32].appl 	generatedWSAs 	0
scalar MyScenario.node[32].appl 	receivedWSAs 	0
scalar MyScenario.node[32].nic.phy80211p 	busyTime 	4.7671232876712e-06
scalar MyScenario.node[32].nic.mac1609_4 	ReceivedUnicastPackets 	0
scalar MyScenario.node[32].nic.mac1609_4 	ReceivedBroadcasts 	0
scalar MyScenario.node[32].nic.mac1609_4 	SentPackets 	0
scalar MyScenario.node[32].nic.mac1609_4 	SNIRLostPackets 	3
scalar MyScenario.node[32].nic.mac1609_4 	RXTXLostPackets 	0
scalar MyScenario.node[32].nic.mac1609_4 	TotalLostPackets 	3
scalar MyScenario.node[32].nic.mac1609_4 	DroppedPacketsInMac 	0
scalar MyScenario.node[32].nic.mac1609_4 	TooLittleTime 	0
scalar MyScenario.node[32].nic.mac1609_4 	TimesIntoBackoff 	0
scalar MyScenario.node[32].nic.mac1609_4 	SlotsBackoff 	0
scalar MyScenario.node[32].nic.mac1609_4 	NumInternalContention 	0
scalar MyScenario.node[32].nic.mac1609_4 	totalBusyTime 	0.000232
scalar MyScenario.node[32].veinsmobility 	startTime 	1
scalar MyScenario.node[32].veinsmobility 	totalTime 	145
scalar MyScenario.node[32].veinsmobility 	stopTime 	147
scalar MyScenario.node[32].veinsmobility 	minSpeed 	0.8325461458834
scalar MyScenario.node[32].veinsmobility 	maxSpeed 	13.854546543187
scalar MyScenario.node[32].veinsmobility 	totalDistance 	1663.8651300737
scalar MyScenario.node[32].veinsmobility 	totalCO2Emission 	463.23757826105
