version 2
run General-19-20170829-17:40:21-8100
attr configname General
attr datetime 20170829-17:40:21
attr density 200
attr experiment General
attr inifile omnetpp.ini
attr iterationvars $density=200
attr iterationvars2 "$density=200, $repetition=9"
attr measurement $density=200
attr network com.liborio.pi.MyScenario
attr processid 8100
attr repetition 9
attr replication #9
attr resultdir results
attr runnumber 19
attr seedset 9
param **.coreDebug false
param **.debug false
param *.**.nic.mac1609_4.bitrate 6Mbps
param *.**.nic.mac1609_4.txPower 20mW
param *.**.nic.mac1609_4.useServiceChannel true
param *.**.nic.phy80211p.analogueModels "xmldoc(\"config.xml\")"
param *.**.nic.phy80211p.antenna "xmldoc(\"antenna.xml\", \"/root/Antenna[@id='monopole']\")"
param *.**.nic.phy80211p.decider "xmldoc(\"config.xml\")"
param *.**.nic.phy80211p.sensitivity -84.39dBm
param *.**.nic.phy80211p.thermalNoise -110dBm
param *.**.nic.phy80211p.usePropagationDelay true
param *.**.nic.phy80211p.useThermalNoise true
param *.annotations.draw true
param *.connectionManager.drawMaxIntfDist false
param *.connectionManager.maxInterfDist 2600m
param *.connectionManager.sendDirect true
param *.manager.autoShutdown true
param *.manager.host "\"localhost\""
param *.manager.launchConfig "xmldoc(string(${density = 100, 200, 300, 400})+\"_\"+ string(${repetition})+\".launchd.xml\")"
param *.manager.port 9999
param *.manager.updateInterval 1s
param *.node[*].appl.beaconInterval 1s
param *.node[*].appl.dataOnSch true
param *.node[*].appl.headerLength "80 bit"
param *.node[*].appl.isSource false
param *.node[*].appl.numMsgs 100
param *.node[*].appl.sendBeacons false
param *.node[*].appl.stopTrafficTime 130s
param *.node[*].appl.wsmInterval 3s
param *.node[*].applType "\"Flooding\""
param *.node[*].veinsmobility.x 0
param *.node[*].veinsmobility.y 0
param *.node[*].veinsmobility.z 1.895
param *.node[*].veinsmobilityType.debug true
param *.node[0].appl.isSource true
param *.playgroundSizeX 2500m
param *.playgroundSizeY 2500m
param *.playgroundSizeZ 50m

scalar . 	density 	200
scalar MyScenario.node[107].appl 	generatedWSMs 	0
scalar MyScenario.node[107].appl 	receivedWSMs 	0
scalar MyScenario.node[107].appl 	generatedBSMs 	0
scalar MyScenario.node[107].appl 	receivedBSMs 	0
scalar MyScenario.node[107].appl 	generatedWSAs 	0
scalar MyScenario.node[107].appl 	receivedWSAs 	0
scalar MyScenario.node[107].nic.phy80211p 	busyTime 	2.32e-05
scalar MyScenario.node[107].nic.mac1609_4 	ReceivedUnicastPackets 	0
scalar MyScenario.node[107].nic.mac1609_4 	ReceivedBroadcasts 	0
scalar MyScenario.node[107].nic.mac1609_4 	SentPackets 	0
scalar MyScenario.node[107].nic.mac1609_4 	SNIRLostPackets 	1
scalar MyScenario.node[107].nic.mac1609_4 	RXTXLostPackets 	0
scalar MyScenario.node[107].nic.mac1609_4 	TotalLostPackets 	1
scalar MyScenario.node[107].nic.mac1609_4 	DroppedPacketsInMac 	0
scalar MyScenario.node[107].nic.mac1609_4 	TooLittleTime 	0
scalar MyScenario.node[107].nic.mac1609_4 	TimesIntoBackoff 	0
scalar MyScenario.node[107].nic.mac1609_4 	SlotsBackoff 	0
scalar MyScenario.node[107].nic.mac1609_4 	NumInternalContention 	0
scalar MyScenario.node[107].nic.mac1609_4 	totalBusyTime 	0.000232
scalar MyScenario.node[107].veinsmobility 	startTime 	1
scalar MyScenario.node[107].veinsmobility 	totalTime 	9
scalar MyScenario.node[107].veinsmobility 	stopTime 	11
scalar MyScenario.node[107].veinsmobility 	minSpeed 	2.5477224879432
scalar MyScenario.node[107].veinsmobility 	maxSpeed 	13.314007206564
scalar MyScenario.node[107].veinsmobility 	totalDistance 	81.749235479231
scalar MyScenario.node[107].veinsmobility 	totalCO2Emission 	36.536453719824
scalar MyScenario.node[165].appl 	generatedWSMs 	0
scalar MyScenario.node[165].appl 	receivedWSMs 	0
scalar MyScenario.node[165].appl 	generatedBSMs 	0
scalar MyScenario.node[165].appl 	receivedBSMs 	0
scalar MyScenario.node[165].appl 	generatedWSAs 	0
scalar MyScenario.node[165].appl 	receivedWSAs 	0
scalar MyScenario.node[165].nic.phy80211p 	busyTime 	4.2181818181818e-05
scalar MyScenario.node[165].nic.mac1609_4 	ReceivedUnicastPackets 	0
scalar MyScenario.node[165].nic.mac1609_4 	ReceivedBroadcasts 	0
scalar MyScenario.node[165].nic.mac1609_4 	SentPackets 	0
scalar MyScenario.node[165].nic.mac1609_4 	SNIRLostPackets 	2
scalar MyScenario.node[165].nic.mac1609_4 	RXTXLostPackets 	0
scalar MyScenario.node[165].nic.mac1609_4 	TotalLostPackets 	2
scalar MyScenario.node[165].nic.mac1609_4 	DroppedPacketsInMac 	0
scalar MyScenario.node[165].nic.mac1609_4 	TooLittleTime 	0
scalar MyScenario.node[165].nic.mac1609_4 	TimesIntoBackoff 	0
scalar MyScenario.node[165].nic.mac1609_4 	SlotsBackoff 	0
scalar MyScenario.node[165].nic.mac1609_4 	NumInternalContention 	0
scalar MyScenario.node[165].nic.mac1609_4 	totalBusyTime 	0.000464
scalar MyScenario.node[165].veinsmobility 	startTime 	4
scalar MyScenario.node[165].veinsmobility 	totalTime 	10
scalar MyScenario.node[165].veinsmobility 	stopTime 	15
scalar MyScenario.node[165].veinsmobility 	minSpeed 	2.5004525177646
scalar MyScenario.node[165].veinsmobility 	maxSpeed 	13.396458849609
scalar MyScenario.node[165].veinsmobility 	totalDistance 	93.312713178586
scalar MyScenario.node[165].veinsmobility 	totalCO2Emission 	38.423501821064
scalar MyScenario.node[128].appl 	generatedWSMs 	0
scalar MyScenario.node[128].appl 	receivedWSMs 	0
scalar MyScenario.node[128].appl 	generatedBSMs 	0
scalar MyScenario.node[128].appl 	receivedBSMs 	0
scalar MyScenario.node[128].appl 	generatedWSAs 	0
scalar MyScenario.node[128].appl 	receivedWSAs 	0
scalar MyScenario.node[128].nic.phy80211p 	busyTime 	0.000116
scalar MyScenario.node[128].nic.mac1609_4 	ReceivedUnicastPackets 	0
scalar MyScenario.node[128].nic.mac1609_4 	ReceivedBroadcasts 	0
scalar MyScenario.node[128].nic.mac1609_4 	SentPackets 	0
scalar MyScenario.node[128].nic.mac1609_4 	SNIRLostPackets 	9
scalar MyScenario.node[128].nic.mac1609_4 	RXTXLostPackets 	0
scalar MyScenario.node[128].nic.mac1609_4 	TotalLostPackets 	9
scalar MyScenario.node[128].nic.mac1609_4 	DroppedPacketsInMac 	0
scalar MyScenario.node[128].nic.mac1609_4 	TooLittleTime 	0
scalar MyScenario.node[128].nic.mac1609_4 	TimesIntoBackoff 	0
scalar MyScenario.node[128].nic.mac1609_4 	SlotsBackoff 	0
scalar MyScenario.node[128].nic.mac1609_4 	NumInternalContention 	0
scalar MyScenario.node[128].nic.mac1609_4 	totalBusyTime 	0.000696
scalar MyScenario.node[128].veinsmobility 	startTime 	1
scalar MyScenario.node[128].veinsmobility 	totalTime 	17
scalar MyScenario.node[128].veinsmobility 	stopTime 	19
scalar MyScenario.node[128].veinsmobility 	minSpeed 	2.2271203645272
scalar MyScenario.node[128].veinsmobility 	maxSpeed 	13.85598696142
scalar MyScenario.node[128].veinsmobility 	totalDistance 	189.67058312837
scalar MyScenario.node[128].veinsmobility 	totalCO2Emission 	59.25703856004
scalar MyScenario.node[126].appl 	generatedWSMs 	1
scalar MyScenario.node[126].appl 	receivedWSMs 	6
scalar MyScenario.node[126].appl 	generatedBSMs 	0
scalar MyScenario.node[126].appl 	receivedBSMs 	0
scalar MyScenario.node[126].appl 	generatedWSAs 	0
scalar MyScenario.node[126].appl 	receivedWSAs 	0
scalar MyScenario.node[126].nic.phy80211p 	busyTime 	0.000232
scalar MyScenario.node[126].nic.mac1609_4 	ReceivedUnicastPackets 	0
scalar MyScenario.node[126].nic.mac1609_4 	ReceivedBroadcasts 	6
scalar MyScenario.node[126].nic.mac1609_4 	SentPackets 	1
scalar MyScenario.node[126].nic.mac1609_4 	SNIRLostPackets 	15
scalar MyScenario.node[126].nic.mac1609_4 	RXTXLostPackets 	12
scalar MyScenario.node[126].nic.mac1609_4 	TotalLostPackets 	27
scalar MyScenario.node[126].nic.mac1609_4 	DroppedPacketsInMac 	0
scalar MyScenario.node[126].nic.mac1609_4 	TooLittleTime 	0
scalar MyScenario.node[126].nic.mac1609_4 	TimesIntoBackoff 	1
scalar MyScenario.node[126].nic.mac1609_4 	SlotsBackoff 	2
scalar MyScenario.node[126].nic.mac1609_4 	NumInternalContention 	0
scalar MyScenario.node[126].nic.mac1609_4 	totalBusyTime 	0.002785072072
scalar MyScenario.node[126].veinsmobility 	startTime 	1
scalar MyScenario.node[126].veinsmobility 	totalTime 	20
scalar MyScenario.node[126].veinsmobility 	stopTime 	22
scalar MyScenario.node[126].veinsmobility 	minSpeed 	2.1151760867632
scalar MyScenario.node[126].veinsmobility 	maxSpeed 	13.895947551634
scalar MyScenario.node[126].veinsmobility 	totalDistance 	182.12279108065
scalar MyScenario.node[126].veinsmobility 	totalCO2Emission 	81.400096380137
scalar MyScenario.node[202].appl 	generatedWSMs 	0
scalar MyScenario.node[202].appl 	receivedWSMs 	0
scalar MyScenario.node[202].appl 	generatedBSMs 	0
scalar MyScenario.node[202].appl 	receivedBSMs 	0
scalar MyScenario.node[202].appl 	generatedWSAs 	0
scalar MyScenario.node[202].appl 	receivedWSAs 	0
scalar MyScenario.node[202].nic.phy80211p 	busyTime 	0
scalar MyScenario.node[202].nic.mac1609_4 	ReceivedUnicastPackets 	0
scalar MyScenario.node[202].nic.mac1609_4 	ReceivedBroadcasts 	0
scalar MyScenario.node[202].nic.mac1609_4 	SentPackets 	0
scalar MyScenario.node[202].nic.mac1609_4 	SNIRLostPackets 	0
scalar MyScenario.node[202].nic.mac1609_4 	RXTXLostPackets 	0
scalar MyScenario.node[202].nic.mac1609_4 	TotalLostPackets 	0
scalar MyScenario.node[202].nic.mac1609_4 	DroppedPacketsInMac 	0
scalar MyScenario.node[202].nic.mac1609_4 	TooLittleTime 	0
scalar MyScenario.node[202].nic.mac1609_4 	TimesIntoBackoff 	0
scalar MyScenario.node[202].nic.mac1609_4 	SlotsBackoff 	0
scalar MyScenario.node[202].nic.mac1609_4 	NumInternalContention 	0
scalar MyScenario.node[202].nic.mac1609_4 	totalBusyTime 	0
scalar MyScenario.node[202].veinsmobility 	startTime 	19
scalar MyScenario.node[202].veinsmobility 	totalTime 	5
scalar MyScenario.node[202].veinsmobility 	stopTime 	25
scalar MyScenario.node[202].veinsmobility 	minSpeed 	12.91245353485
scalar MyScenario.node[202].veinsmobility 	maxSpeed 	13.765709737479
scalar MyScenario.node[202].veinsmobility 	totalDistance 	66.806543786335
scalar MyScenario.node[202].veinsmobility 	totalCO2Emission 	10.361222357063
scalar MyScenario.node[135].appl 	generatedWSMs 	1
scalar MyScenario.node[135].appl 	receivedWSMs 	1
scalar MyScenario.node[135].appl 	generatedBSMs 	0
scalar MyScenario.node[135].appl 	receivedBSMs 	0
scalar MyScenario.node[135].appl 	generatedWSAs 	0
scalar MyScenario.node[135].appl 	receivedWSAs 	0
scalar MyScenario.node[135].nic.phy80211p 	busyTime 	8.8e-05
scalar MyScenario.node[135].nic.mac1609_4 	ReceivedUnicastPackets 	0
scalar MyScenario.node[135].nic.mac1609_4 	ReceivedBroadcasts 	1
scalar MyScenario.node[135].nic.mac1609_4 	SentPackets 	1
scalar MyScenario.node[135].nic.mac1609_4 	SNIRLostPackets 	10
scalar MyScenario.node[135].nic.mac1609_4 	RXTXLostPackets 	3
scalar MyScenario.node[135].nic.mac1609_4 	TotalLostPackets 	13
scalar MyScenario.node[135].nic.mac1609_4 	DroppedPacketsInMac 	0
scalar MyScenario.node[135].nic.mac1609_4 	TooLittleTime 	0
scalar MyScenario.node[135].nic.mac1609_4 	TimesIntoBackoff 	1
scalar MyScenario.node[135].nic.mac1609_4 	SlotsBackoff 	2
scalar MyScenario.node[135].nic.mac1609_4 	NumInternalContention 	0
scalar MyScenario.node[135].nic.mac1609_4 	totalBusyTime 	0.001625
scalar MyScenario.node[135].veinsmobility 	startTime 	1
scalar MyScenario.node[135].veinsmobility 	totalTime 	28
scalar MyScenario.node[135].veinsmobility 	stopTime 	30
scalar MyScenario.node[135].veinsmobility 	minSpeed 	1.3183325938621
scalar MyScenario.node[135].veinsmobility 	maxSpeed 	13.881979655055
scalar MyScenario.node[135].veinsmobility 	totalDistance 	281.40507363067
scalar MyScenario.node[135].veinsmobility 	totalCO2Emission 	90.585808478411
scalar MyScenario.node[164].appl 	generatedWSMs 	1
scalar MyScenario.node[164].appl 	receivedWSMs 	1
scalar MyScenario.node[164].appl 	generatedBSMs 	0
scalar MyScenario.node[164].appl 	receivedBSMs 	0
scalar MyScenario.node[164].appl 	generatedWSAs 	0
scalar MyScenario.node[164].appl 	receivedWSAs 	0
scalar MyScenario.node[164].nic.phy80211p 	busyTime 	6.8740740740741e-05
scalar MyScenario.node[164].nic.mac1609_4 	ReceivedUnicastPackets 	0
scalar MyScenario.node[164].nic.mac1609_4 	ReceivedBroadcasts 	1
scalar MyScenario.node[164].nic.mac1609_4 	SentPackets 	1
scalar MyScenario.node[164].nic.mac1609_4 	SNIRLostPackets 	7
scalar MyScenario.node[164].nic.mac1609_4 	RXTXLostPackets 	7
scalar MyScenario.node[164].nic.mac1609_4 	TotalLostPackets 	14
scalar MyScenario.node[164].nic.mac1609_4 	DroppedPacketsInMac 	0
scalar MyScenario.node[164].nic.mac1609_4 	TooLittleTime 	0
scalar MyScenario.node[164].nic.mac1609_4 	TimesIntoBackoff 	1
scalar MyScenario.node[164].nic.mac1609_4 	SlotsBackoff 	0
scalar MyScenario.node[164].nic.mac1609_4 	NumInternalContention 	0
scalar MyScenario.node[164].nic.mac1609_4 	totalBusyTime 	0.001161
scalar MyScenario.node[164].veinsmobility 	startTime 	4
scalar MyScenario.node[164].veinsmobility 	totalTime 	26
scalar MyScenario.node[164].veinsmobility 	stopTime 	31
scalar MyScenario.node[164].veinsmobility 	minSpeed 	1.6826343737077
scalar MyScenario.node[164].veinsmobility 	maxSpeed 	13.818239715393
scalar MyScenario.node[164].veinsmobility 	totalDistance 	267.37245700443
scalar MyScenario.node[164].veinsmobility 	totalCO2Emission 	92.488524306853
scalar MyScenario.node[35].appl 	generatedWSMs 	1
scalar MyScenario.node[35].appl 	receivedWSMs 	9
scalar MyScenario.node[35].appl 	generatedBSMs 	0
scalar MyScenario.node[35].appl 	receivedBSMs 	0
scalar MyScenario.node[35].appl 	generatedWSAs 	0
scalar MyScenario.node[35].appl 	receivedWSAs 	0
scalar MyScenario.node[35].nic.phy80211p 	busyTime 	0.000232
scalar MyScenario.node[35].nic.mac1609_4 	ReceivedUnicastPackets 	0
scalar MyScenario.node[35].nic.mac1609_4 	ReceivedBroadcasts 	9
scalar MyScenario.node[35].nic.mac1609_4 	SentPackets 	1
scalar MyScenario.node[35].nic.mac1609_4 	SNIRLostPackets 	24
scalar MyScenario.node[35].nic.mac1609_4 	RXTXLostPackets 	1
scalar MyScenario.node[35].nic.mac1609_4 	TotalLostPackets 	25
scalar MyScenario.node[35].nic.mac1609_4 	DroppedPacketsInMac 	0
scalar MyScenario.node[35].nic.mac1609_4 	TooLittleTime 	0
scalar MyScenario.node[35].nic.mac1609_4 	TimesIntoBackoff 	1
scalar MyScenario.node[35].nic.mac1609_4 	SlotsBackoff 	0
scalar MyScenario.node[35].nic.mac1609_4 	NumInternalContention 	0
scalar MyScenario.node[35].nic.mac1609_4 	totalBusyTime 	0.003945
scalar MyScenario.node[35].veinsmobility 	startTime 	1
scalar MyScenario.node[35].veinsmobility 	totalTime 	32
scalar MyScenario.node[35].veinsmobility 	stopTime 	34
scalar MyScenario.node[35].veinsmobility 	minSpeed 	0.039177897745004
scalar MyScenario.node[35].veinsmobility 	maxSpeed 	13.872557571949
scalar MyScenario.node[35].veinsmobility 	totalDistance 	278.72640399617
scalar MyScenario.node[35].veinsmobility 	totalCO2Emission 	113.60005352098
scalar MyScenario.node[127].appl 	generatedWSMs 	1
scalar MyScenario.node[127].appl 	receivedWSMs 	3
scalar MyScenario.node[127].appl 	generatedBSMs 	0
scalar MyScenario.node[127].appl 	receivedBSMs 	0
scalar MyScenario.node[127].appl 	generatedWSAs 	0
scalar MyScenario.node[127].appl 	receivedWSAs 	0
scalar MyScenario.node[127].nic.phy80211p 	busyTime 	0.00022517647058824
scalar MyScenario.node[127].nic.mac1609_4 	ReceivedUnicastPackets 	0
scalar MyScenario.node[127].nic.mac1609_4 	ReceivedBroadcasts 	3
scalar MyScenario.node[127].nic.mac1609_4 	SentPackets 	1
scalar MyScenario.node[127].nic.mac1609_4 	SNIRLostPackets 	30
scalar MyScenario.node[127].nic.mac1609_4 	RXTXLostPackets 	4
scalar MyScenario.node[127].nic.mac1609_4 	TotalLostPackets 	34
scalar MyScenario.node[127].nic.mac1609_4 	DroppedPacketsInMac 	0
scalar MyScenario.node[127].nic.mac1609_4 	TooLittleTime 	0
scalar MyScenario.node[127].nic.mac1609_4 	TimesIntoBackoff 	1
scalar MyScenario.node[127].nic.mac1609_4 	SlotsBackoff 	3
scalar MyScenario.node[127].nic.mac1609_4 	NumInternalContention 	0
scalar MyScenario.node[127].nic.mac1609_4 	totalBusyTime 	0.002553049432
scalar MyScenario.node[127].veinsmobility 	startTime 	1
scalar MyScenario.node[127].veinsmobility 	totalTime 	33
scalar MyScenario.node[127].veinsmobility 	stopTime 	35
scalar MyScenario.node[127].veinsmobility 	minSpeed 	1.7051743990509
scalar MyScenario.node[127].veinsmobility 	maxSpeed 	13.888397396822
scalar MyScenario.node[127].veinsmobility 	totalDistance 	377.26848513829
scalar MyScenario.node[127].veinsmobility 	totalCO2Emission 	104.40000035222
scalar MyScenario.node[44].appl 	generatedWSMs 	1
scalar MyScenario.node[44].appl 	receivedWSMs 	9
scalar MyScenario.node[44].appl 	generatedBSMs 	0
scalar MyScenario.node[44].appl 	receivedBSMs 	0
scalar MyScenario.node[44].appl 	generatedWSAs 	0
scalar MyScenario.node[44].appl 	receivedWSAs 	0
scalar MyScenario.node[44].nic.phy80211p 	busyTime 	0.00020548571428571
scalar MyScenario.node[44].nic.mac1609_4 	ReceivedUnicastPackets 	0
scalar MyScenario.node[44].nic.mac1609_4 	ReceivedBroadcasts 	9
scalar MyScenario.node[44].nic.mac1609_4 	SentPackets 	1
scalar MyScenario.node[44].nic.mac1609_4 	SNIRLostPackets 	22
scalar MyScenario.node[44].nic.mac1609_4 	RXTXLostPackets 	10
scalar MyScenario.node[44].nic.mac1609_4 	TotalLostPackets 	32
scalar MyScenario.node[44].nic.mac1609_4 	DroppedPacketsInMac 	0
scalar MyScenario.node[44].nic.mac1609_4 	TooLittleTime 	0
scalar MyScenario.node[44].nic.mac1609_4 	TimesIntoBackoff 	1
scalar MyScenario.node[44].nic.mac1609_4 	SlotsBackoff 	2
scalar MyScenario.node[44].nic.mac1609_4 	NumInternalContention 	0
scalar MyScenario.node[44].nic.mac1609_4 	totalBusyTime 	0.003017106422
scalar MyScenario.node[44].veinsmobility 	startTime 	1
scalar MyScenario.node[44].veinsmobility 	totalTime 	34
scalar MyScenario.node[44].veinsmobility 	stopTime 	36
scalar MyScenario.node[44].veinsmobility 	minSpeed 	1.3330999397673
scalar MyScenario.node[44].veinsmobility 	maxSpeed 	13.896784347575
scalar MyScenario.node[44].veinsmobility 	totalDistance 	377.31200197827
scalar MyScenario.node[44].veinsmobility 	totalCO2Emission 	124.26214425375
scalar MyScenario.node[51].appl 	generatedWSMs 	1
scalar MyScenario.node[51].appl 	receivedWSMs 	4
scalar MyScenario.node[51].appl 	generatedBSMs 	0
scalar MyScenario.node[51].appl 	receivedBSMs 	0
scalar MyScenario.node[51].appl 	generatedWSAs 	0
scalar MyScenario.node[51].appl 	receivedWSAs 	0
scalar MyScenario.node[51].nic.phy80211p 	busyTime 	0.00012888888888889
scalar MyScenario.node[51].nic.mac1609_4 	ReceivedUnicastPackets 	0
scalar MyScenario.node[51].nic.mac1609_4 	ReceivedBroadcasts 	4
scalar MyScenario.node[51].nic.mac1609_4 	SentPackets 	1
scalar MyScenario.node[51].nic.mac1609_4 	SNIRLostPackets 	16
scalar MyScenario.node[51].nic.mac1609_4 	RXTXLostPackets 	9
scalar MyScenario.node[51].nic.mac1609_4 	TotalLostPackets 	25
scalar MyScenario.node[51].nic.mac1609_4 	DroppedPacketsInMac 	0
scalar MyScenario.node[51].nic.mac1609_4 	TooLittleTime 	0
scalar MyScenario.node[51].nic.mac1609_4 	TimesIntoBackoff 	1
scalar MyScenario.node[51].nic.mac1609_4 	SlotsBackoff 	0
scalar MyScenario.node[51].nic.mac1609_4 	NumInternalContention 	0
scalar MyScenario.node[51].nic.mac1609_4 	totalBusyTime 	0.002785
scalar MyScenario.node[51].veinsmobility 	startTime 	1
scalar MyScenario.node[51].veinsmobility 	totalTime 	35
scalar MyScenario.node[51].veinsmobility 	stopTime 	37
scalar MyScenario.node[51].veinsmobility 	minSpeed 	1.7024291854665
scalar MyScenario.node[51].veinsmobility 	maxSpeed 	13.82216942769
scalar MyScenario.node[51].veinsmobility 	totalDistance 	367.95632476393
scalar MyScenario.node[51].veinsmobility 	totalCO2Emission 	109.52545190413
scalar MyScenario.node[114].appl 	generatedWSMs 	1
scalar MyScenario.node[114].appl 	receivedWSMs 	9
scalar MyScenario.node[114].appl 	generatedBSMs 	0
scalar MyScenario.node[114].appl 	receivedBSMs 	0
scalar MyScenario.node[114].appl 	generatedWSAs 	0
scalar MyScenario.node[114].appl 	receivedWSAs 	0
scalar MyScenario.node[114].nic.phy80211p 	busyTime 	0.00025133333333333
scalar MyScenario.node[114].nic.mac1609_4 	ReceivedUnicastPackets 	0
scalar MyScenario.node[114].nic.mac1609_4 	ReceivedBroadcasts 	9
scalar MyScenario.node[114].nic.mac1609_4 	SentPackets 	1
scalar MyScenario.node[114].nic.mac1609_4 	SNIRLostPackets 	30
scalar MyScenario.node[114].nic.mac1609_4 	RXTXLostPackets 	10
scalar MyScenario.node[114].nic.mac1609_4 	TotalLostPackets 	40
scalar MyScenario.node[114].nic.mac1609_4 	DroppedPacketsInMac 	0
scalar MyScenario.node[114].nic.mac1609_4 	TooLittleTime 	0
scalar MyScenario.node[114].nic.mac1609_4 	TimesIntoBackoff 	1
scalar MyScenario.node[114].nic.mac1609_4 	SlotsBackoff 	2
scalar MyScenario.node[114].nic.mac1609_4 	NumInternalContention 	0
scalar MyScenario.node[114].nic.mac1609_4 	totalBusyTime 	0.003713013346
scalar MyScenario.node[114].veinsmobility 	startTime 	1
scalar MyScenario.node[114].veinsmobility 	totalTime 	35
scalar MyScenario.node[114].veinsmobility 	stopTime 	37
scalar MyScenario.node[114].veinsmobility 	minSpeed 	1.7641161226435
scalar MyScenario.node[114].veinsmobility 	maxSpeed 	13.52266888395
scalar MyScenario.node[114].veinsmobility 	totalDistance 	375.35054183073
scalar MyScenario.node[114].veinsmobility 	totalCO2Emission 	117.260923721
scalar MyScenario.node[76].appl 	generatedWSMs 	0
scalar MyScenario.node[76].appl 	receivedWSMs 	0
scalar MyScenario.node[76].appl 	generatedBSMs 	0
scalar MyScenario.node[76].appl 	receivedBSMs 	0
scalar MyScenario.node[76].appl 	generatedWSAs 	0
scalar MyScenario.node[76].appl 	receivedWSAs 	0
scalar MyScenario.node[76].nic.phy80211p 	busyTime 	5.6585365853659e-05
scalar MyScenario.node[76].nic.mac1609_4 	ReceivedUnicastPackets 	0
scalar MyScenario.node[76].nic.mac1609_4 	ReceivedBroadcasts 	0
scalar MyScenario.node[76].nic.mac1609_4 	SentPackets 	0
scalar MyScenario.node[76].nic.mac1609_4 	SNIRLostPackets 	10
scalar MyScenario.node[76].nic.mac1609_4 	RXTXLostPackets 	0
scalar MyScenario.node[76].nic.mac1609_4 	TotalLostPackets 	10
scalar MyScenario.node[76].nic.mac1609_4 	DroppedPacketsInMac 	0
scalar MyScenario.node[76].nic.mac1609_4 	TooLittleTime 	0
scalar MyScenario.node[76].nic.mac1609_4 	TimesIntoBackoff 	0
scalar MyScenario.node[76].nic.mac1609_4 	SlotsBackoff 	0
scalar MyScenario.node[76].nic.mac1609_4 	NumInternalContention 	0
scalar MyScenario.node[76].nic.mac1609_4 	totalBusyTime 	0.000464
scalar MyScenario.node[76].veinsmobility 	startTime 	1
scalar MyScenario.node[76].veinsmobility 	totalTime 	40
scalar MyScenario.node[76].veinsmobility 	stopTime 	42
scalar MyScenario.node[76].veinsmobility 	minSpeed 	0.25628501143342
scalar MyScenario.node[76].veinsmobility 	maxSpeed 	13.806422167155
scalar MyScenario.node[76].veinsmobility 	totalDistance 	383.76886769275
scalar MyScenario.node[76].veinsmobility 	totalCO2Emission 	128.15383005814
scalar MyScenario.node[63].appl 	generatedWSMs 	1
scalar MyScenario.node[63].appl 	receivedWSMs 	2
scalar MyScenario.node[63].appl 	generatedBSMs 	0
scalar MyScenario.node[63].appl 	receivedBSMs 	0
scalar MyScenario.node[63].appl 	generatedWSAs 	0
scalar MyScenario.node[63].appl 	receivedWSAs 	0
scalar MyScenario.node[63].nic.phy80211p 	busyTime 	0.0001767619047619
scalar MyScenario.node[63].nic.mac1609_4 	ReceivedUnicastPackets 	0
scalar MyScenario.node[63].nic.mac1609_4 	ReceivedBroadcasts 	2
scalar MyScenario.node[63].nic.mac1609_4 	SentPackets 	1
scalar MyScenario.node[63].nic.mac1609_4 	SNIRLostPackets 	30
scalar MyScenario.node[63].nic.mac1609_4 	RXTXLostPackets 	4
scalar MyScenario.node[63].nic.mac1609_4 	TotalLostPackets 	34
scalar MyScenario.node[63].nic.mac1609_4 	DroppedPacketsInMac 	0
scalar MyScenario.node[63].nic.mac1609_4 	TooLittleTime 	0
scalar MyScenario.node[63].nic.mac1609_4 	TimesIntoBackoff 	1
scalar MyScenario.node[63].nic.mac1609_4 	SlotsBackoff 	1
scalar MyScenario.node[63].nic.mac1609_4 	NumInternalContention 	0
scalar MyScenario.node[63].nic.mac1609_4 	totalBusyTime 	0.002553129826
scalar MyScenario.node[63].veinsmobility 	startTime 	1
scalar MyScenario.node[63].veinsmobility 	totalTime 	41
scalar MyScenario.node[63].veinsmobility 	stopTime 	43
scalar MyScenario.node[63].veinsmobility 	minSpeed 	2.3396055150079
scalar MyScenario.node[63].veinsmobility 	maxSpeed 	13.710154106235
scalar MyScenario.node[63].veinsmobility 	totalDistance 	471.93195148701
scalar MyScenario.node[63].veinsmobility 	totalCO2Emission 	124.89669302168
scalar MyScenario.node[0].appl 	generatedWSMs 	14
scalar MyScenario.node[0].appl 	receivedWSMs 	6
scalar MyScenario.node[0].appl 	generatedBSMs 	0
scalar MyScenario.node[0].appl 	receivedBSMs 	0
scalar MyScenario.node[0].appl 	generatedWSAs 	0
scalar MyScenario.node[0].appl 	receivedWSAs 	0
scalar MyScenario.node[0].nic.phy80211p 	busyTime 	0.00028723809523809
scalar MyScenario.node[0].nic.mac1609_4 	ReceivedUnicastPackets 	0
scalar MyScenario.node[0].nic.mac1609_4 	ReceivedBroadcasts 	6
scalar MyScenario.node[0].nic.mac1609_4 	SentPackets 	14
scalar MyScenario.node[0].nic.mac1609_4 	SNIRLostPackets 	46
scalar MyScenario.node[0].nic.mac1609_4 	RXTXLostPackets 	0
scalar MyScenario.node[0].nic.mac1609_4 	TotalLostPackets 	46
scalar MyScenario.node[0].nic.mac1609_4 	DroppedPacketsInMac 	0
scalar MyScenario.node[0].nic.mac1609_4 	TooLittleTime 	0
scalar MyScenario.node[0].nic.mac1609_4 	TimesIntoBackoff 	14
scalar MyScenario.node[0].nic.mac1609_4 	SlotsBackoff 	21
scalar MyScenario.node[0].nic.mac1609_4 	NumInternalContention 	0
scalar MyScenario.node[0].nic.mac1609_4 	totalBusyTime 	0.006046
scalar MyScenario.node[0].veinsmobility 	startTime 	1
scalar MyScenario.node[0].veinsmobility 	totalTime 	41
scalar MyScenario.node[0].veinsmobility 	stopTime 	43
scalar MyScenario.node[0].veinsmobility 	minSpeed 	1.88002558304
scalar MyScenario.node[0].veinsmobility 	maxSpeed 	13.874037668179
scalar MyScenario.node[0].veinsmobility 	totalDistance 	461.94505437784
scalar MyScenario.node[0].veinsmobility 	totalCO2Emission 	123.83890463816
scalar MyScenario.node[152].appl 	generatedWSMs 	0
scalar MyScenario.node[152].appl 	receivedWSMs 	0
scalar MyScenario.node[152].appl 	generatedBSMs 	0
scalar MyScenario.node[152].appl 	receivedBSMs 	0
scalar MyScenario.node[152].appl 	generatedWSAs 	0
scalar MyScenario.node[152].appl 	receivedWSAs 	0
scalar MyScenario.node[152].nic.phy80211p 	busyTime 	6.5435897435897e-05
scalar MyScenario.node[152].nic.mac1609_4 	ReceivedUnicastPackets 	0
scalar MyScenario.node[152].nic.mac1609_4 	ReceivedBroadcasts 	0
scalar MyScenario.node[152].nic.mac1609_4 	SentPackets 	0
scalar MyScenario.node[152].nic.mac1609_4 	SNIRLostPackets 	11
scalar MyScenario.node[152].nic.mac1609_4 	RXTXLostPackets 	0
scalar MyScenario.node[152].nic.mac1609_4 	TotalLostPackets 	11
scalar MyScenario.node[152].nic.mac1609_4 	DroppedPacketsInMac 	0
scalar MyScenario.node[152].nic.mac1609_4 	TooLittleTime 	0
scalar MyScenario.node[152].nic.mac1609_4 	TimesIntoBackoff 	0
scalar MyScenario.node[152].nic.mac1609_4 	SlotsBackoff 	0
scalar MyScenario.node[152].nic.mac1609_4 	NumInternalContention 	0
scalar MyScenario.node[152].nic.mac1609_4 	totalBusyTime 	0.000232
scalar MyScenario.node[152].veinsmobility 	startTime 	4
scalar MyScenario.node[152].veinsmobility 	totalTime 	38
scalar MyScenario.node[152].veinsmobility 	stopTime 	43
scalar MyScenario.node[152].veinsmobility 	minSpeed 	3.3058408426265e-07
scalar MyScenario.node[152].veinsmobility 	maxSpeed 	13.897276708391
scalar MyScenario.node[152].veinsmobility 	totalDistance 	279.77427935936
scalar MyScenario.node[152].veinsmobility 	totalCO2Emission 	104.97477004304
scalar MyScenario.node[19].appl 	generatedWSMs 	1
scalar MyScenario.node[19].appl 	receivedWSMs 	2
scalar MyScenario.node[19].appl 	generatedBSMs 	0
scalar MyScenario.node[19].appl 	receivedBSMs 	0
scalar MyScenario.node[19].appl 	generatedWSAs 	0
scalar MyScenario.node[19].appl 	receivedWSAs 	0
scalar MyScenario.node[19].nic.phy80211p 	busyTime 	9.1720930232558e-05
scalar MyScenario.node[19].nic.mac1609_4 	ReceivedUnicastPackets 	0
scalar MyScenario.node[19].nic.mac1609_4 	ReceivedBroadcasts 	2
scalar MyScenario.node[19].nic.mac1609_4 	SentPackets 	1
scalar MyScenario.node[19].nic.mac1609_4 	SNIRLostPackets 	15
scalar MyScenario.node[19].nic.mac1609_4 	RXTXLostPackets 	1
scalar MyScenario.node[19].nic.mac1609_4 	TotalLostPackets 	16
scalar MyScenario.node[19].nic.mac1609_4 	DroppedPacketsInMac 	0
scalar MyScenario.node[19].nic.mac1609_4 	TooLittleTime 	0
scalar MyScenario.node[19].nic.mac1609_4 	TimesIntoBackoff 	1
scalar MyScenario.node[19].nic.mac1609_4 	SlotsBackoff 	1
scalar MyScenario.node[19].nic.mac1609_4 	NumInternalContention 	0
scalar MyScenario.node[19].nic.mac1609_4 	totalBusyTime 	0.001625
scalar MyScenario.node[19].veinsmobility 	startTime 	1
scalar MyScenario.node[19].veinsmobility 	totalTime 	42
scalar MyScenario.node[19].veinsmobility 	stopTime 	44
scalar MyScenario.node[19].veinsmobility 	minSpeed 	0.28121234804391
scalar MyScenario.node[19].veinsmobility 	maxSpeed 	13.757538575656
scalar MyScenario.node[19].veinsmobility 	totalDistance 	372.66399279457
scalar MyScenario.node[19].veinsmobility 	totalCO2Emission 	139.54991268326
scalar MyScenario.node[155].appl 	generatedWSMs 	0
scalar MyScenario.node[155].appl 	receivedWSMs 	0
scalar MyScenario.node[155].appl 	generatedBSMs 	0
scalar MyScenario.node[155].appl 	receivedBSMs 	0
scalar MyScenario.node[155].appl 	generatedWSAs 	0
scalar MyScenario.node[155].appl 	receivedWSAs 	0
scalar MyScenario.node[155].nic.phy80211p 	busyTime 	3.9609756097561e-05
scalar MyScenario.node[155].nic.mac1609_4 	ReceivedUnicastPackets 	0
scalar MyScenario.node[155].nic.mac1609_4 	ReceivedBroadcasts 	0
scalar MyScenario.node[155].nic.mac1609_4 	SentPackets 	0
scalar MyScenario.node[155].nic.mac1609_4 	SNIRLostPackets 	7
scalar MyScenario.node[155].nic.mac1609_4 	RXTXLostPackets 	0
scalar MyScenario.node[155].nic.mac1609_4 	TotalLostPackets 	7
scalar MyScenario.node[155].nic.mac1609_4 	DroppedPacketsInMac 	0
scalar MyScenario.node[155].nic.mac1609_4 	TooLittleTime 	0
scalar MyScenario.node[155].nic.mac1609_4 	TimesIntoBackoff 	0
scalar MyScenario.node[155].nic.mac1609_4 	SlotsBackoff 	0
scalar MyScenario.node[155].nic.mac1609_4 	NumInternalContention 	0
scalar MyScenario.node[155].nic.mac1609_4 	totalBusyTime 	0.000928
scalar MyScenario.node[155].veinsmobility 	startTime 	4
scalar MyScenario.node[155].veinsmobility 	totalTime 	40
scalar MyScenario.node[155].veinsmobility 	stopTime 	45
scalar MyScenario.node[155].veinsmobility 	minSpeed 	1.989516789536
scalar MyScenario.node[155].veinsmobility 	maxSpeed 	13.868357614381
scalar MyScenario.node[155].veinsmobility 	totalDistance 	469.30241947689
scalar MyScenario.node[155].veinsmobility 	totalCO2Emission 	124.3273491531
scalar MyScenario.node[25].appl 	generatedWSMs 	0
scalar MyScenario.node[25].appl 	receivedWSMs 	0
scalar MyScenario.node[25].appl 	generatedBSMs 	0
scalar MyScenario.node[25].appl 	receivedBSMs 	0
scalar MyScenario.node[25].appl 	generatedWSAs 	0
scalar MyScenario.node[25].appl 	receivedWSAs 	0
scalar MyScenario.node[25].nic.phy80211p 	busyTime 	4.2181818181818e-05
scalar MyScenario.node[25].nic.mac1609_4 	ReceivedUnicastPackets 	0
scalar MyScenario.node[25].nic.mac1609_4 	ReceivedBroadcasts 	0
scalar MyScenario.node[25].nic.mac1609_4 	SentPackets 	0
scalar MyScenario.node[25].nic.mac1609_4 	SNIRLostPackets 	8
scalar MyScenario.node[25].nic.mac1609_4 	RXTXLostPackets 	0
scalar MyScenario.node[25].nic.mac1609_4 	TotalLostPackets 	8
scalar MyScenario.node[25].nic.mac1609_4 	DroppedPacketsInMac 	0
scalar MyScenario.node[25].nic.mac1609_4 	TooLittleTime 	0
scalar MyScenario.node[25].nic.mac1609_4 	TimesIntoBackoff 	0
scalar MyScenario.node[25].nic.mac1609_4 	SlotsBackoff 	0
scalar MyScenario.node[25].nic.mac1609_4 	NumInternalContention 	0
scalar MyScenario.node[25].nic.mac1609_4 	totalBusyTime 	0.000928
scalar MyScenario.node[25].veinsmobility 	startTime 	1
scalar MyScenario.node[25].veinsmobility 	totalTime 	43
scalar MyScenario.node[25].veinsmobility 	stopTime 	45
scalar MyScenario.node[25].veinsmobility 	minSpeed 	1.8055686729262
scalar MyScenario.node[25].veinsmobility 	maxSpeed 	13.858280470665
scalar MyScenario.node[25].veinsmobility 	totalDistance 	473.36008489469
scalar MyScenario.node[25].veinsmobility 	totalCO2Emission 	144.01805386497
scalar MyScenario.node[64].appl 	generatedWSMs 	1
scalar MyScenario.node[64].appl 	receivedWSMs 	4
scalar MyScenario.node[64].appl 	generatedBSMs 	0
scalar MyScenario.node[64].appl 	receivedBSMs 	0
scalar MyScenario.node[64].appl 	generatedWSAs 	0
scalar MyScenario.node[64].appl 	receivedWSAs 	0
scalar MyScenario.node[64].nic.phy80211p 	busyTime 	0.00016497777777778
scalar MyScenario.node[64].nic.mac1609_4 	ReceivedUnicastPackets 	0
scalar MyScenario.node[64].nic.mac1609_4 	ReceivedBroadcasts 	4
scalar MyScenario.node[64].nic.mac1609_4 	SentPackets 	1
scalar MyScenario.node[64].nic.mac1609_4 	SNIRLostPackets 	28
scalar MyScenario.node[64].nic.mac1609_4 	RXTXLostPackets 	3
scalar MyScenario.node[64].nic.mac1609_4 	TotalLostPackets 	31
scalar MyScenario.node[64].nic.mac1609_4 	DroppedPacketsInMac 	0
scalar MyScenario.node[64].nic.mac1609_4 	TooLittleTime 	0
scalar MyScenario.node[64].nic.mac1609_4 	TimesIntoBackoff 	1
scalar MyScenario.node[64].nic.mac1609_4 	SlotsBackoff 	1
scalar MyScenario.node[64].nic.mac1609_4 	NumInternalContention 	0
scalar MyScenario.node[64].nic.mac1609_4 	totalBusyTime 	0.003017
scalar MyScenario.node[64].veinsmobility 	startTime 	1
scalar MyScenario.node[64].veinsmobility 	totalTime 	44
scalar MyScenario.node[64].veinsmobility 	stopTime 	46
scalar MyScenario.node[64].veinsmobility 	minSpeed 	1.6247970117023
scalar MyScenario.node[64].veinsmobility 	maxSpeed 	13.897532524308
scalar MyScenario.node[64].veinsmobility 	totalDistance 	477.11666871938
scalar MyScenario.node[64].veinsmobility 	totalCO2Emission 	145.27758938187
scalar MyScenario.node[172].appl 	generatedWSMs 	0
scalar MyScenario.node[172].appl 	receivedWSMs 	0
scalar MyScenario.node[172].appl 	generatedBSMs 	0
scalar MyScenario.node[172].appl 	receivedBSMs 	0
scalar MyScenario.node[172].appl 	generatedWSAs 	0
scalar MyScenario.node[172].appl 	receivedWSAs 	0
scalar MyScenario.node[172].nic.phy80211p 	busyTime 	0
scalar MyScenario.node[172].nic.mac1609_4 	ReceivedUnicastPackets 	0
scalar MyScenario.node[172].nic.mac1609_4 	ReceivedBroadcasts 	0
scalar MyScenario.node[172].nic.mac1609_4 	SentPackets 	0
scalar MyScenario.node[172].nic.mac1609_4 	SNIRLostPackets 	0
scalar MyScenario.node[172].nic.mac1609_4 	RXTXLostPackets 	0
scalar MyScenario.node[172].nic.mac1609_4 	TotalLostPackets 	0
scalar MyScenario.node[172].nic.mac1609_4 	DroppedPacketsInMac 	0
scalar MyScenario.node[172].nic.mac1609_4 	TooLittleTime 	0
scalar MyScenario.node[172].nic.mac1609_4 	TimesIntoBackoff 	0
scalar MyScenario.node[172].nic.mac1609_4 	SlotsBackoff 	0
scalar MyScenario.node[172].nic.mac1609_4 	NumInternalContention 	0
scalar MyScenario.node[172].nic.mac1609_4 	totalBusyTime 	0
scalar MyScenario.node[172].veinsmobility 	startTime 	4
scalar MyScenario.node[172].veinsmobility 	totalTime 	42
scalar MyScenario.node[172].veinsmobility 	stopTime 	47
scalar MyScenario.node[172].veinsmobility 	minSpeed 	2.2655844493303
scalar MyScenario.node[172].veinsmobility 	maxSpeed 	13.895127477846
scalar MyScenario.node[172].veinsmobility 	totalDistance 	470.94288308273
scalar MyScenario.node[172].veinsmobility 	totalCO2Emission 	143.8848649973
scalar MyScenario.node[20].appl 	generatedWSMs 	1
scalar MyScenario.node[20].appl 	receivedWSMs 	1
scalar MyScenario.node[20].appl 	generatedBSMs 	0
scalar MyScenario.node[20].appl 	receivedBSMs 	0
scalar MyScenario.node[20].appl 	generatedWSAs 	0
scalar MyScenario.node[20].appl 	receivedWSAs 	0
scalar MyScenario.node[20].nic.phy80211p 	busyTime 	2.9e-05
scalar MyScenario.node[20].nic.mac1609_4 	ReceivedUnicastPackets 	0
scalar MyScenario.node[20].nic.mac1609_4 	ReceivedBroadcasts 	1
scalar MyScenario.node[20].nic.mac1609_4 	SentPackets 	1
scalar MyScenario.node[20].nic.mac1609_4 	SNIRLostPackets 	5
scalar MyScenario.node[20].nic.mac1609_4 	RXTXLostPackets 	7
scalar MyScenario.node[20].nic.mac1609_4 	TotalLostPackets 	12
scalar MyScenario.node[20].nic.mac1609_4 	DroppedPacketsInMac 	0
scalar MyScenario.node[20].nic.mac1609_4 	TooLittleTime 	0
scalar MyScenario.node[20].nic.mac1609_4 	TimesIntoBackoff 	1
scalar MyScenario.node[20].nic.mac1609_4 	SlotsBackoff 	3
scalar MyScenario.node[20].nic.mac1609_4 	NumInternalContention 	0
scalar MyScenario.node[20].nic.mac1609_4 	totalBusyTime 	0.000929
scalar MyScenario.node[20].veinsmobility 	startTime 	1
scalar MyScenario.node[20].veinsmobility 	totalTime 	47
scalar MyScenario.node[20].veinsmobility 	stopTime 	49
scalar MyScenario.node[20].veinsmobility 	minSpeed 	1.6907526838173e-05
scalar MyScenario.node[20].veinsmobility 	maxSpeed 	13.795222187485
scalar MyScenario.node[20].veinsmobility 	totalDistance 	379.42104901175
scalar MyScenario.node[20].veinsmobility 	totalCO2Emission 	144.85436292068
scalar MyScenario.node[95].appl 	generatedWSMs 	1
scalar MyScenario.node[95].appl 	receivedWSMs 	13
scalar MyScenario.node[95].appl 	generatedBSMs 	0
scalar MyScenario.node[95].appl 	receivedBSMs 	0
scalar MyScenario.node[95].appl 	generatedWSAs 	0
scalar MyScenario.node[95].appl 	receivedWSAs 	0
scalar MyScenario.node[95].nic.phy80211p 	busyTime 	0.0001305
scalar MyScenario.node[95].nic.mac1609_4 	ReceivedUnicastPackets 	0
scalar MyScenario.node[95].nic.mac1609_4 	ReceivedBroadcasts 	13
scalar MyScenario.node[95].nic.mac1609_4 	SentPackets 	1
scalar MyScenario.node[95].nic.mac1609_4 	SNIRLostPackets 	14
scalar MyScenario.node[95].nic.mac1609_4 	RXTXLostPackets 	8
scalar MyScenario.node[95].nic.mac1609_4 	TotalLostPackets 	22
scalar MyScenario.node[95].nic.mac1609_4 	DroppedPacketsInMac 	0
scalar MyScenario.node[95].nic.mac1609_4 	TooLittleTime 	0
scalar MyScenario.node[95].nic.mac1609_4 	TimesIntoBackoff 	1
scalar MyScenario.node[95].nic.mac1609_4 	SlotsBackoff 	3
scalar MyScenario.node[95].nic.mac1609_4 	NumInternalContention 	0
scalar MyScenario.node[95].nic.mac1609_4 	totalBusyTime 	0.004641132239
scalar MyScenario.node[95].veinsmobility 	startTime 	1
scalar MyScenario.node[95].veinsmobility 	totalTime 	47
scalar MyScenario.node[95].veinsmobility 	stopTime 	49
scalar MyScenario.node[95].veinsmobility 	minSpeed 	0.49103919697914
scalar MyScenario.node[95].veinsmobility 	maxSpeed 	13.893736265972
scalar MyScenario.node[95].veinsmobility 	totalDistance 	481.8103720782
scalar MyScenario.node[95].veinsmobility 	totalCO2Emission 	143.94929615194
scalar MyScenario.node[170].appl 	generatedWSMs 	1
scalar MyScenario.node[170].appl 	receivedWSMs 	2
scalar MyScenario.node[170].appl 	generatedBSMs 	0
scalar MyScenario.node[170].appl 	receivedBSMs 	0
scalar MyScenario.node[170].appl 	generatedWSAs 	0
scalar MyScenario.node[170].appl 	receivedWSAs 	0
scalar MyScenario.node[170].nic.phy80211p 	busyTime 	0.00010826666666667
scalar MyScenario.node[170].nic.mac1609_4 	ReceivedUnicastPackets 	0
scalar MyScenario.node[170].nic.mac1609_4 	ReceivedBroadcasts 	2
scalar MyScenario.node[170].nic.mac1609_4 	SentPackets 	1
scalar MyScenario.node[170].nic.mac1609_4 	SNIRLostPackets 	19
scalar MyScenario.node[170].nic.mac1609_4 	RXTXLostPackets 	3
scalar MyScenario.node[170].nic.mac1609_4 	TotalLostPackets 	22
scalar MyScenario.node[170].nic.mac1609_4 	DroppedPacketsInMac 	0
scalar MyScenario.node[170].nic.mac1609_4 	TooLittleTime 	0
scalar MyScenario.node[170].nic.mac1609_4 	TimesIntoBackoff 	1
scalar MyScenario.node[170].nic.mac1609_4 	SlotsBackoff 	1
scalar MyScenario.node[170].nic.mac1609_4 	NumInternalContention 	0
scalar MyScenario.node[170].nic.mac1609_4 	totalBusyTime 	0.001857095937
scalar MyScenario.node[170].veinsmobility 	startTime 	4
scalar MyScenario.node[170].veinsmobility 	totalTime 	44
scalar MyScenario.node[170].veinsmobility 	stopTime 	49
scalar MyScenario.node[170].veinsmobility 	minSpeed 	0.34560926937007
scalar MyScenario.node[170].veinsmobility 	maxSpeed 	13.826466774009
scalar MyScenario.node[170].veinsmobility 	totalDistance 	472.62570967178
scalar MyScenario.node[170].veinsmobility 	totalCO2Emission 	130.22200318154
scalar MyScenario.node[121].appl 	generatedWSMs 	0
scalar MyScenario.node[121].appl 	receivedWSMs 	0
scalar MyScenario.node[121].appl 	generatedBSMs 	0
scalar MyScenario.node[121].appl 	receivedBSMs 	0
scalar MyScenario.node[121].appl 	generatedWSAs 	0
scalar MyScenario.node[121].appl 	receivedWSAs 	0
scalar MyScenario.node[121].nic.phy80211p 	busyTime 	4.35e-05
scalar MyScenario.node[121].nic.mac1609_4 	ReceivedUnicastPackets 	0
scalar MyScenario.node[121].nic.mac1609_4 	ReceivedBroadcasts 	0
scalar MyScenario.node[121].nic.mac1609_4 	SentPackets 	0
scalar MyScenario.node[121].nic.mac1609_4 	SNIRLostPackets 	9
scalar MyScenario.node[121].nic.mac1609_4 	RXTXLostPackets 	0
scalar MyScenario.node[121].nic.mac1609_4 	TotalLostPackets 	9
scalar MyScenario.node[121].nic.mac1609_4 	DroppedPacketsInMac 	0
scalar MyScenario.node[121].nic.mac1609_4 	TooLittleTime 	0
scalar MyScenario.node[121].nic.mac1609_4 	TimesIntoBackoff 	0
scalar MyScenario.node[121].nic.mac1609_4 	SlotsBackoff 	0
scalar MyScenario.node[121].nic.mac1609_4 	NumInternalContention 	0
scalar MyScenario.node[121].nic.mac1609_4 	totalBusyTime 	0.000696
scalar MyScenario.node[121].veinsmobility 	startTime 	1
scalar MyScenario.node[121].veinsmobility 	totalTime 	47
scalar MyScenario.node[121].veinsmobility 	stopTime 	49
scalar MyScenario.node[121].veinsmobility 	minSpeed 	1.382806213852
scalar MyScenario.node[121].veinsmobility 	maxSpeed 	13.88749184201
scalar MyScenario.node[121].veinsmobility 	totalDistance 	581.54784532208
scalar MyScenario.node[121].veinsmobility 	totalCO2Emission 	129.84500237405
scalar MyScenario.node[12].appl 	generatedWSMs 	1
scalar MyScenario.node[12].appl 	receivedWSMs 	8
scalar MyScenario.node[12].appl 	generatedBSMs 	0
scalar MyScenario.node[12].appl 	receivedBSMs 	0
scalar MyScenario.node[12].appl 	generatedWSAs 	0
scalar MyScenario.node[12].appl 	receivedWSAs 	0
scalar MyScenario.node[12].nic.phy80211p 	busyTime 	0.000145
scalar MyScenario.node[12].nic.mac1609_4 	ReceivedUnicastPackets 	0
scalar MyScenario.node[12].nic.mac1609_4 	ReceivedBroadcasts 	8
scalar MyScenario.node[12].nic.mac1609_4 	SentPackets 	1
scalar MyScenario.node[12].nic.mac1609_4 	SNIRLostPackets 	22
scalar MyScenario.node[12].nic.mac1609_4 	RXTXLostPackets 	22
scalar MyScenario.node[12].nic.mac1609_4 	TotalLostPackets 	44
scalar MyScenario.node[12].nic.mac1609_4 	DroppedPacketsInMac 	0
scalar MyScenario.node[12].nic.mac1609_4 	TooLittleTime 	0
scalar MyScenario.node[12].nic.mac1609_4 	TimesIntoBackoff 	1
scalar MyScenario.node[12].nic.mac1609_4 	SlotsBackoff 	3
scalar MyScenario.node[12].nic.mac1609_4 	NumInternalContention 	0
scalar MyScenario.node[12].nic.mac1609_4 	totalBusyTime 	0.003017
scalar MyScenario.node[12].veinsmobility 	startTime 	1
scalar MyScenario.node[12].veinsmobility 	totalTime 	47
scalar MyScenario.node[12].veinsmobility 	stopTime 	49
scalar MyScenario.node[12].veinsmobility 	minSpeed 	1.4384237334365
scalar MyScenario.node[12].veinsmobility 	maxSpeed 	13.864809868904
scalar MyScenario.node[12].veinsmobility 	totalDistance 	560.96316996126
scalar MyScenario.node[12].veinsmobility 	totalCO2Emission 	139.79920420975
scalar MyScenario.node[9].appl 	generatedWSMs 	0
scalar MyScenario.node[9].appl 	receivedWSMs 	0
scalar MyScenario.node[9].appl 	generatedBSMs 	0
scalar MyScenario.node[9].appl 	receivedBSMs 	0
scalar MyScenario.node[9].appl 	generatedWSAs 	0
scalar MyScenario.node[9].appl 	receivedWSAs 	0
scalar MyScenario.node[9].nic.phy80211p 	busyTime 	4.734693877551e-05
scalar MyScenario.node[9].nic.mac1609_4 	ReceivedUnicastPackets 	0
scalar MyScenario.node[9].nic.mac1609_4 	ReceivedBroadcasts 	0
scalar MyScenario.node[9].nic.mac1609_4 	SentPackets 	0
scalar MyScenario.node[9].nic.mac1609_4 	SNIRLostPackets 	10
scalar MyScenario.node[9].nic.mac1609_4 	RXTXLostPackets 	0
scalar MyScenario.node[9].nic.mac1609_4 	TotalLostPackets 	10
scalar MyScenario.node[9].nic.mac1609_4 	DroppedPacketsInMac 	0
scalar MyScenario.node[9].nic.mac1609_4 	TooLittleTime 	0
scalar MyScenario.node[9].nic.mac1609_4 	TimesIntoBackoff 	0
scalar MyScenario.node[9].nic.mac1609_4 	SlotsBackoff 	0
scalar MyScenario.node[9].nic.mac1609_4 	NumInternalContention 	0
scalar MyScenario.node[9].nic.mac1609_4 	totalBusyTime 	0.000232
scalar MyScenario.node[9].veinsmobility 	startTime 	1
scalar MyScenario.node[9].veinsmobility 	totalTime 	48
scalar MyScenario.node[9].veinsmobility 	stopTime 	50
scalar MyScenario.node[9].veinsmobility 	minSpeed 	0.0031418817375433
scalar MyScenario.node[9].veinsmobility 	maxSpeed 	13.826814659988
scalar MyScenario.node[9].veinsmobility 	totalDistance 	463.37473789735
scalar MyScenario.node[9].veinsmobility 	totalCO2Emission 	149.19479804907
scalar MyScenario.node[198].appl 	generatedWSMs 	0
scalar MyScenario.node[198].appl 	receivedWSMs 	0
scalar MyScenario.node[198].appl 	generatedBSMs 	0
scalar MyScenario.node[198].appl 	receivedBSMs 	0
scalar MyScenario.node[198].appl 	generatedWSAs 	0
scalar MyScenario.node[198].appl 	receivedWSAs 	0
scalar MyScenario.node[198].nic.phy80211p 	busyTime 	9.7116279069767e-05
scalar MyScenario.node[198].nic.mac1609_4 	ReceivedUnicastPackets 	0
scalar MyScenario.node[198].nic.mac1609_4 	ReceivedBroadcasts 	0
scalar MyScenario.node[198].nic.mac1609_4 	SentPackets 	0
scalar MyScenario.node[198].nic.mac1609_4 	SNIRLostPackets 	18
scalar MyScenario.node[198].nic.mac1609_4 	RXTXLostPackets 	0
scalar MyScenario.node[198].nic.mac1609_4 	TotalLostPackets 	18
scalar MyScenario.node[198].nic.mac1609_4 	DroppedPacketsInMac 	0
scalar MyScenario.node[198].nic.mac1609_4 	TooLittleTime 	0
scalar MyScenario.node[198].nic.mac1609_4 	TimesIntoBackoff 	0
scalar MyScenario.node[198].nic.mac1609_4 	SlotsBackoff 	0
scalar MyScenario.node[198].nic.mac1609_4 	NumInternalContention 	0
scalar MyScenario.node[198].nic.mac1609_4 	totalBusyTime 	0.000928
scalar MyScenario.node[198].veinsmobility 	startTime 	7
scalar MyScenario.node[198].veinsmobility 	totalTime 	42
scalar MyScenario.node[198].veinsmobility 	stopTime 	50
scalar MyScenario.node[198].veinsmobility 	minSpeed 	2.1178880007472
scalar MyScenario.node[198].veinsmobility 	maxSpeed 	13.889560538833
scalar MyScenario.node[198].veinsmobility 	totalDistance 	475.76975879229
scalar MyScenario.node[198].veinsmobility 	totalCO2Emission 	126.9026704826
scalar MyScenario.node[54].appl 	generatedWSMs 	1
scalar MyScenario.node[54].appl 	receivedWSMs 	2
scalar MyScenario.node[54].appl 	generatedBSMs 	0
scalar MyScenario.node[54].appl 	receivedBSMs 	0
scalar MyScenario.node[54].appl 	generatedWSAs 	0
scalar MyScenario.node[54].appl 	receivedWSAs 	0
scalar MyScenario.node[54].nic.phy80211p 	busyTime 	6.1551020408163e-05
scalar MyScenario.node[54].nic.mac1609_4 	ReceivedUnicastPackets 	0
scalar MyScenario.node[54].nic.mac1609_4 	ReceivedBroadcasts 	2
scalar MyScenario.node[54].nic.mac1609_4 	SentPackets 	1
scalar MyScenario.node[54].nic.mac1609_4 	SNIRLostPackets 	11
scalar MyScenario.node[54].nic.mac1609_4 	RXTXLostPackets 	5
scalar MyScenario.node[54].nic.mac1609_4 	TotalLostPackets 	16
scalar MyScenario.node[54].nic.mac1609_4 	DroppedPacketsInMac 	0
scalar MyScenario.node[54].nic.mac1609_4 	TooLittleTime 	0
scalar MyScenario.node[54].nic.mac1609_4 	TimesIntoBackoff 	1
scalar MyScenario.node[54].nic.mac1609_4 	SlotsBackoff 	0
scalar MyScenario.node[54].nic.mac1609_4 	NumInternalContention 	0
scalar MyScenario.node[54].nic.mac1609_4 	totalBusyTime 	0.001857
scalar MyScenario.node[54].veinsmobility 	startTime 	1
scalar MyScenario.node[54].veinsmobility 	totalTime 	48
scalar MyScenario.node[54].veinsmobility 	stopTime 	50
scalar MyScenario.node[54].veinsmobility 	minSpeed 	1.3886400338495
scalar MyScenario.node[54].veinsmobility 	maxSpeed 	13.891333201155
scalar MyScenario.node[54].veinsmobility 	totalDistance 	582.76906597426
scalar MyScenario.node[54].veinsmobility 	totalCO2Emission 	140.3554358086
scalar MyScenario.node[50].appl 	generatedWSMs 	1
scalar MyScenario.node[50].appl 	receivedWSMs 	2
scalar MyScenario.node[50].appl 	generatedBSMs 	0
scalar MyScenario.node[50].appl 	receivedBSMs 	0
scalar MyScenario.node[50].appl 	generatedWSAs 	0
scalar MyScenario.node[50].appl 	receivedWSAs 	0
scalar MyScenario.node[50].nic.phy80211p 	busyTime 	7.1020408163265e-05
scalar MyScenario.node[50].nic.mac1609_4 	ReceivedUnicastPackets 	0
scalar MyScenario.node[50].nic.mac1609_4 	ReceivedBroadcasts 	2
scalar MyScenario.node[50].nic.mac1609_4 	SentPackets 	1
scalar MyScenario.node[50].nic.mac1609_4 	SNIRLostPackets 	13
scalar MyScenario.node[50].nic.mac1609_4 	RXTXLostPackets 	4
scalar MyScenario.node[50].nic.mac1609_4 	TotalLostPackets 	17
scalar MyScenario.node[50].nic.mac1609_4 	DroppedPacketsInMac 	0
scalar MyScenario.node[50].nic.mac1609_4 	TooLittleTime 	0
scalar MyScenario.node[50].nic.mac1609_4 	TimesIntoBackoff 	1
scalar MyScenario.node[50].nic.mac1609_4 	SlotsBackoff 	2
scalar MyScenario.node[50].nic.mac1609_4 	NumInternalContention 	0
scalar MyScenario.node[50].nic.mac1609_4 	totalBusyTime 	0.001625
scalar MyScenario.node[50].veinsmobility 	startTime 	1
scalar MyScenario.node[50].veinsmobility 	totalTime 	48
scalar MyScenario.node[50].veinsmobility 	stopTime 	50
scalar MyScenario.node[50].veinsmobility 	minSpeed 	0.74416435066185
scalar MyScenario.node[50].veinsmobility 	maxSpeed 	13.898924797983
scalar MyScenario.node[50].veinsmobility 	totalDistance 	467.42704376572
scalar MyScenario.node[50].veinsmobility 	totalCO2Emission 	153.82106168384
scalar MyScenario.node[61].appl 	generatedWSMs 	0
scalar MyScenario.node[61].appl 	receivedWSMs 	0
scalar MyScenario.node[61].appl 	generatedBSMs 	0
scalar MyScenario.node[61].appl 	receivedBSMs 	0
scalar MyScenario.node[61].appl 	generatedWSAs 	0
scalar MyScenario.node[61].appl 	receivedWSAs 	0
scalar MyScenario.node[61].nic.phy80211p 	busyTime 	1.392e-05
scalar MyScenario.node[61].nic.mac1609_4 	ReceivedUnicastPackets 	0
scalar MyScenario.node[61].nic.mac1609_4 	ReceivedBroadcasts 	0
scalar MyScenario.node[61].nic.mac1609_4 	SentPackets 	0
scalar MyScenario.node[61].nic.mac1609_4 	SNIRLostPackets 	3
scalar MyScenario.node[61].nic.mac1609_4 	RXTXLostPackets 	0
scalar MyScenario.node[61].nic.mac1609_4 	TotalLostPackets 	3
scalar MyScenario.node[61].nic.mac1609_4 	DroppedPacketsInMac 	0
scalar MyScenario.node[61].nic.mac1609_4 	TooLittleTime 	0
scalar MyScenario.node[61].nic.mac1609_4 	TimesIntoBackoff 	0
scalar MyScenario.node[61].nic.mac1609_4 	SlotsBackoff 	0
scalar MyScenario.node[61].nic.mac1609_4 	NumInternalContention 	0
scalar MyScenario.node[61].nic.mac1609_4 	totalBusyTime 	0.000232
scalar MyScenario.node[61].veinsmobility 	startTime 	1
scalar MyScenario.node[61].veinsmobility 	totalTime 	49
scalar MyScenario.node[61].veinsmobility 	stopTime 	51
scalar MyScenario.node[61].veinsmobility 	minSpeed 	1.7883795431117
scalar MyScenario.node[61].veinsmobility 	maxSpeed 	13.847856311779
scalar MyScenario.node[61].veinsmobility 	totalDistance 	571.07159014006
scalar MyScenario.node[61].veinsmobility 	totalCO2Emission 	144.17103929239
scalar MyScenario.node[69].appl 	generatedWSMs 	1
scalar MyScenario.node[69].appl 	receivedWSMs 	3
scalar MyScenario.node[69].appl 	generatedBSMs 	0
scalar MyScenario.node[69].appl 	receivedBSMs 	0
scalar MyScenario.node[69].appl 	generatedWSAs 	0
scalar MyScenario.node[69].appl 	receivedWSAs 	0
scalar MyScenario.node[69].nic.phy80211p 	busyTime 	8.352e-05
scalar MyScenario.node[69].nic.mac1609_4 	ReceivedUnicastPackets 	0
scalar MyScenario.node[69].nic.mac1609_4 	ReceivedBroadcasts 	3
scalar MyScenario.node[69].nic.mac1609_4 	SentPackets 	1
scalar MyScenario.node[69].nic.mac1609_4 	SNIRLostPackets 	15
scalar MyScenario.node[69].nic.mac1609_4 	RXTXLostPackets 	4
scalar MyScenario.node[69].nic.mac1609_4 	TotalLostPackets 	19
scalar MyScenario.node[69].nic.mac1609_4 	DroppedPacketsInMac 	0
scalar MyScenario.node[69].nic.mac1609_4 	TooLittleTime 	0
scalar MyScenario.node[69].nic.mac1609_4 	TimesIntoBackoff 	1
scalar MyScenario.node[69].nic.mac1609_4 	SlotsBackoff 	2
scalar MyScenario.node[69].nic.mac1609_4 	NumInternalContention 	0
scalar MyScenario.node[69].nic.mac1609_4 	totalBusyTime 	0.001393
scalar MyScenario.node[69].veinsmobility 	startTime 	1
scalar MyScenario.node[69].veinsmobility 	totalTime 	49
scalar MyScenario.node[69].veinsmobility 	stopTime 	51
scalar MyScenario.node[69].veinsmobility 	minSpeed 	1.8907720529707
scalar MyScenario.node[69].veinsmobility 	maxSpeed 	13.882660436188
scalar MyScenario.node[69].veinsmobility 	totalDistance 	558.99802721983
scalar MyScenario.node[69].veinsmobility 	totalCO2Emission 	159.10748288143
scalar MyScenario.node[78].appl 	generatedWSMs 	1
scalar MyScenario.node[78].appl 	receivedWSMs 	1
scalar MyScenario.node[78].appl 	generatedBSMs 	0
scalar MyScenario.node[78].appl 	receivedBSMs 	0
scalar MyScenario.node[78].appl 	generatedWSAs 	0
scalar MyScenario.node[78].appl 	receivedWSAs 	0
scalar MyScenario.node[78].nic.phy80211p 	busyTime 	2.784e-05
scalar MyScenario.node[78].nic.mac1609_4 	ReceivedUnicastPackets 	0
scalar MyScenario.node[78].nic.mac1609_4 	ReceivedBroadcasts 	1
scalar MyScenario.node[78].nic.mac1609_4 	SentPackets 	1
scalar MyScenario.node[78].nic.mac1609_4 	SNIRLostPackets 	5
scalar MyScenario.node[78].nic.mac1609_4 	RXTXLostPackets 	10
scalar MyScenario.node[78].nic.mac1609_4 	TotalLostPackets 	15
scalar MyScenario.node[78].nic.mac1609_4 	DroppedPacketsInMac 	0
scalar MyScenario.node[78].nic.mac1609_4 	TooLittleTime 	0
scalar MyScenario.node[78].nic.mac1609_4 	TimesIntoBackoff 	1
scalar MyScenario.node[78].nic.mac1609_4 	SlotsBackoff 	2
scalar MyScenario.node[78].nic.mac1609_4 	NumInternalContention 	0
scalar MyScenario.node[78].nic.mac1609_4 	totalBusyTime 	0.000929
scalar MyScenario.node[78].veinsmobility 	startTime 	1
scalar MyScenario.node[78].veinsmobility 	totalTime 	49
scalar MyScenario.node[78].veinsmobility 	stopTime 	51
scalar MyScenario.node[78].veinsmobility 	minSpeed 	2.0634341837373
scalar MyScenario.node[78].veinsmobility 	maxSpeed 	13.648736193706
scalar MyScenario.node[78].veinsmobility 	totalDistance 	565.43956980274
scalar MyScenario.node[78].veinsmobility 	totalCO2Emission 	150.30382912135
scalar MyScenario.node[180].appl 	generatedWSMs 	1
scalar MyScenario.node[180].appl 	receivedWSMs 	5
scalar MyScenario.node[180].appl 	generatedBSMs 	0
scalar MyScenario.node[180].appl 	receivedBSMs 	0
scalar MyScenario.node[180].appl 	generatedWSAs 	0
scalar MyScenario.node[180].appl 	receivedWSAs 	0
scalar MyScenario.node[180].nic.phy80211p 	busyTime 	7.25e-05
scalar MyScenario.node[180].nic.mac1609_4 	ReceivedUnicastPackets 	0
scalar MyScenario.node[180].nic.mac1609_4 	ReceivedBroadcasts 	5
scalar MyScenario.node[180].nic.mac1609_4 	SentPackets 	1
scalar MyScenario.node[180].nic.mac1609_4 	SNIRLostPackets 	10
scalar MyScenario.node[180].nic.mac1609_4 	RXTXLostPackets 	5
scalar MyScenario.node[180].nic.mac1609_4 	TotalLostPackets 	15
scalar MyScenario.node[180].nic.mac1609_4 	DroppedPacketsInMac 	0
scalar MyScenario.node[180].nic.mac1609_4 	TooLittleTime 	0
scalar MyScenario.node[180].nic.mac1609_4 	TimesIntoBackoff 	1
scalar MyScenario.node[180].nic.mac1609_4 	SlotsBackoff 	1
scalar MyScenario.node[180].nic.mac1609_4 	NumInternalContention 	0
scalar MyScenario.node[180].nic.mac1609_4 	totalBusyTime 	0.002553000594
scalar MyScenario.node[180].veinsmobility 	startTime 	4
scalar MyScenario.node[180].veinsmobility 	totalTime 	47
scalar MyScenario.node[180].veinsmobility 	stopTime 	52
scalar MyScenario.node[180].veinsmobility 	minSpeed 	0.032247168965408
scalar MyScenario.node[180].veinsmobility 	maxSpeed 	13.89347253649
scalar MyScenario.node[180].veinsmobility 	totalDistance 	458.8292567253
scalar MyScenario.node[180].veinsmobility 	totalCO2Emission 	157.64505982371
scalar MyScenario.node[3].appl 	generatedWSMs 	1
scalar MyScenario.node[3].appl 	receivedWSMs 	8
scalar MyScenario.node[3].appl 	generatedBSMs 	0
scalar MyScenario.node[3].appl 	receivedBSMs 	0
scalar MyScenario.node[3].appl 	generatedWSAs 	0
scalar MyScenario.node[3].appl 	receivedWSAs 	0
scalar MyScenario.node[3].nic.phy80211p 	busyTime 	6.8235294117647e-05
scalar MyScenario.node[3].nic.mac1609_4 	ReceivedUnicastPackets 	0
scalar MyScenario.node[3].nic.mac1609_4 	ReceivedBroadcasts 	8
scalar MyScenario.node[3].nic.mac1609_4 	SentPackets 	1
scalar MyScenario.node[3].nic.mac1609_4 	SNIRLostPackets 	7
scalar MyScenario.node[3].nic.mac1609_4 	RXTXLostPackets 	10
scalar MyScenario.node[3].nic.mac1609_4 	TotalLostPackets 	17
scalar MyScenario.node[3].nic.mac1609_4 	DroppedPacketsInMac 	0
scalar MyScenario.node[3].nic.mac1609_4 	TooLittleTime 	0
scalar MyScenario.node[3].nic.mac1609_4 	TimesIntoBackoff 	1
scalar MyScenario.node[3].nic.mac1609_4 	SlotsBackoff 	2
scalar MyScenario.node[3].nic.mac1609_4 	NumInternalContention 	0
scalar MyScenario.node[3].nic.mac1609_4 	totalBusyTime 	0.003017
scalar MyScenario.node[3].veinsmobility 	startTime 	1
scalar MyScenario.node[3].veinsmobility 	totalTime 	50
scalar MyScenario.node[3].veinsmobility 	stopTime 	52
scalar MyScenario.node[3].veinsmobility 	minSpeed 	2.58940726812
scalar MyScenario.node[3].veinsmobility 	maxSpeed 	13.887572815223
scalar MyScenario.node[3].veinsmobility 	totalDistance 	566.22980484126
scalar MyScenario.node[3].veinsmobility 	totalCO2Emission 	174.41868392973
scalar MyScenario.node[75].appl 	generatedWSMs 	1
scalar MyScenario.node[75].appl 	receivedWSMs 	6
scalar MyScenario.node[75].appl 	generatedBSMs 	0
scalar MyScenario.node[75].appl 	receivedBSMs 	0
scalar MyScenario.node[75].appl 	generatedWSAs 	0
scalar MyScenario.node[75].appl 	receivedWSAs 	0
scalar MyScenario.node[75].nic.phy80211p 	busyTime 	0.00017741176470588
scalar MyScenario.node[75].nic.mac1609_4 	ReceivedUnicastPackets 	0
scalar MyScenario.node[75].nic.mac1609_4 	ReceivedBroadcasts 	6
scalar MyScenario.node[75].nic.mac1609_4 	SentPackets 	1
scalar MyScenario.node[75].nic.mac1609_4 	SNIRLostPackets 	33
scalar MyScenario.node[75].nic.mac1609_4 	RXTXLostPackets 	13
scalar MyScenario.node[75].nic.mac1609_4 	TotalLostPackets 	46
scalar MyScenario.node[75].nic.mac1609_4 	DroppedPacketsInMac 	0
scalar MyScenario.node[75].nic.mac1609_4 	TooLittleTime 	0
scalar MyScenario.node[75].nic.mac1609_4 	TimesIntoBackoff 	1
scalar MyScenario.node[75].nic.mac1609_4 	SlotsBackoff 	2
scalar MyScenario.node[75].nic.mac1609_4 	NumInternalContention 	0
scalar MyScenario.node[75].nic.mac1609_4 	totalBusyTime 	0.003017193812
scalar MyScenario.node[75].veinsmobility 	startTime 	1
scalar MyScenario.node[75].veinsmobility 	totalTime 	50
scalar MyScenario.node[75].veinsmobility 	stopTime 	52
scalar MyScenario.node[75].veinsmobility 	minSpeed 	2.5865529294591
scalar MyScenario.node[75].veinsmobility 	maxSpeed 	13.89278875913
scalar MyScenario.node[75].veinsmobility 	totalDistance 	571.81870115286
scalar MyScenario.node[75].veinsmobility 	totalCO2Emission 	172.84150051106
scalar MyScenario.node[142].appl 	generatedWSMs 	0
scalar MyScenario.node[142].appl 	receivedWSMs 	0
scalar MyScenario.node[142].appl 	generatedBSMs 	0
scalar MyScenario.node[142].appl 	receivedBSMs 	0
scalar MyScenario.node[142].appl 	generatedWSAs 	0
scalar MyScenario.node[142].appl 	receivedWSAs 	0
scalar MyScenario.node[142].nic.phy80211p 	busyTime 	0
scalar MyScenario.node[142].nic.mac1609_4 	ReceivedUnicastPackets 	0
scalar MyScenario.node[142].nic.mac1609_4 	ReceivedBroadcasts 	0
scalar MyScenario.node[142].nic.mac1609_4 	SentPackets 	0
scalar MyScenario.node[142].nic.mac1609_4 	SNIRLostPackets 	0
scalar MyScenario.node[142].nic.mac1609_4 	RXTXLostPackets 	0
scalar MyScenario.node[142].nic.mac1609_4 	TotalLostPackets 	0
scalar MyScenario.node[142].nic.mac1609_4 	DroppedPacketsInMac 	0
scalar MyScenario.node[142].nic.mac1609_4 	TooLittleTime 	0
scalar MyScenario.node[142].nic.mac1609_4 	TimesIntoBackoff 	0
scalar MyScenario.node[142].nic.mac1609_4 	SlotsBackoff 	0
scalar MyScenario.node[142].nic.mac1609_4 	NumInternalContention 	0
scalar MyScenario.node[142].nic.mac1609_4 	totalBusyTime 	0
scalar MyScenario.node[142].veinsmobility 	startTime 	1
scalar MyScenario.node[142].veinsmobility 	totalTime 	51
scalar MyScenario.node[142].veinsmobility 	stopTime 	53
scalar MyScenario.node[142].veinsmobility 	minSpeed 	1.3793095743516
scalar MyScenario.node[142].veinsmobility 	maxSpeed 	13.818477015174
scalar MyScenario.node[142].veinsmobility 	totalDistance 	551.82719791707
scalar MyScenario.node[142].veinsmobility 	totalCO2Emission 	160.52937381846
scalar MyScenario.node[33].appl 	generatedWSMs 	0
scalar MyScenario.node[33].appl 	receivedWSMs 	0
scalar MyScenario.node[33].appl 	generatedBSMs 	0
scalar MyScenario.node[33].appl 	receivedBSMs 	0
scalar MyScenario.node[33].appl 	generatedWSAs 	0
scalar MyScenario.node[33].appl 	receivedWSAs 	0
scalar MyScenario.node[33].nic.phy80211p 	busyTime 	7.5846153846154e-05
scalar MyScenario.node[33].nic.mac1609_4 	ReceivedUnicastPackets 	0
scalar MyScenario.node[33].nic.mac1609_4 	ReceivedBroadcasts 	0
scalar MyScenario.node[33].nic.mac1609_4 	SentPackets 	0
scalar MyScenario.node[33].nic.mac1609_4 	SNIRLostPackets 	17
scalar MyScenario.node[33].nic.mac1609_4 	RXTXLostPackets 	0
scalar MyScenario.node[33].nic.mac1609_4 	TotalLostPackets 	17
scalar MyScenario.node[33].nic.mac1609_4 	DroppedPacketsInMac 	0
scalar MyScenario.node[33].nic.mac1609_4 	TooLittleTime 	0
scalar MyScenario.node[33].nic.mac1609_4 	TimesIntoBackoff 	0
scalar MyScenario.node[33].nic.mac1609_4 	SlotsBackoff 	0
scalar MyScenario.node[33].nic.mac1609_4 	NumInternalContention 	0
scalar MyScenario.node[33].nic.mac1609_4 	totalBusyTime 	0.00116
scalar MyScenario.node[33].veinsmobility 	startTime 	1
scalar MyScenario.node[33].veinsmobility 	totalTime 	51
scalar MyScenario.node[33].veinsmobility 	stopTime 	53
scalar MyScenario.node[33].veinsmobility 	minSpeed 	2.0164017149247
scalar MyScenario.node[33].veinsmobility 	maxSpeed 	13.766875395365
scalar MyScenario.node[33].veinsmobility 	totalDistance 	564.48274553481
scalar MyScenario.node[33].veinsmobility 	totalCO2Emission 	168.43392567673
scalar MyScenario.node[133].appl 	generatedWSMs 	0
scalar MyScenario.node[133].appl 	receivedWSMs 	0
scalar MyScenario.node[133].appl 	generatedBSMs 	0
scalar MyScenario.node[133].appl 	receivedBSMs 	0
scalar MyScenario.node[133].appl 	generatedWSAs 	0
scalar MyScenario.node[133].appl 	receivedWSAs 	0
scalar MyScenario.node[133].nic.phy80211p 	busyTime 	3.0641509433962e-05
scalar MyScenario.node[133].nic.mac1609_4 	ReceivedUnicastPackets 	0
scalar MyScenario.node[133].nic.mac1609_4 	ReceivedBroadcasts 	0
scalar MyScenario.node[133].nic.mac1609_4 	SentPackets 	0
scalar MyScenario.node[133].nic.mac1609_4 	SNIRLostPackets 	7
scalar MyScenario.node[133].nic.mac1609_4 	RXTXLostPackets 	0
scalar MyScenario.node[133].nic.mac1609_4 	TotalLostPackets 	7
scalar MyScenario.node[133].nic.mac1609_4 	DroppedPacketsInMac 	0
scalar MyScenario.node[133].nic.mac1609_4 	TooLittleTime 	0
scalar MyScenario.node[133].nic.mac1609_4 	TimesIntoBackoff 	0
scalar MyScenario.node[133].nic.mac1609_4 	SlotsBackoff 	0
scalar MyScenario.node[133].nic.mac1609_4 	NumInternalContention 	0
scalar MyScenario.node[133].nic.mac1609_4 	totalBusyTime 	0.000232
scalar MyScenario.node[133].veinsmobility 	startTime 	1
scalar MyScenario.node[133].veinsmobility 	totalTime 	52
scalar MyScenario.node[133].veinsmobility 	stopTime 	54
scalar MyScenario.node[133].veinsmobility 	minSpeed 	0.54671389989049
scalar MyScenario.node[133].veinsmobility 	maxSpeed 	13.887504951074
scalar MyScenario.node[133].veinsmobility 	totalDistance 	564.21191076023
scalar MyScenario.node[133].veinsmobility 	totalCO2Emission 	163.20382002565
scalar MyScenario.node[2].appl 	generatedWSMs 	1
scalar MyScenario.node[2].appl 	receivedWSMs 	1
scalar MyScenario.node[2].appl 	generatedBSMs 	0
scalar MyScenario.node[2].appl 	receivedBSMs 	0
scalar MyScenario.node[2].appl 	generatedWSAs 	0
scalar MyScenario.node[2].appl 	receivedWSAs 	0
scalar MyScenario.node[2].nic.phy80211p 	busyTime 	0.00015758490566038
scalar MyScenario.node[2].nic.mac1609_4 	ReceivedUnicastPackets 	0
scalar MyScenario.node[2].nic.mac1609_4 	ReceivedBroadcasts 	1
scalar MyScenario.node[2].nic.mac1609_4 	SentPackets 	1
scalar MyScenario.node[2].nic.mac1609_4 	SNIRLostPackets 	35
scalar MyScenario.node[2].nic.mac1609_4 	RXTXLostPackets 	0
scalar MyScenario.node[2].nic.mac1609_4 	TotalLostPackets 	35
scalar MyScenario.node[2].nic.mac1609_4 	DroppedPacketsInMac 	0
scalar MyScenario.node[2].nic.mac1609_4 	TooLittleTime 	0
scalar MyScenario.node[2].nic.mac1609_4 	TimesIntoBackoff 	1
scalar MyScenario.node[2].nic.mac1609_4 	SlotsBackoff 	0
scalar MyScenario.node[2].nic.mac1609_4 	NumInternalContention 	0
scalar MyScenario.node[2].nic.mac1609_4 	totalBusyTime 	0.002089
scalar MyScenario.node[2].veinsmobility 	startTime 	1
scalar MyScenario.node[2].veinsmobility 	totalTime 	52
scalar MyScenario.node[2].veinsmobility 	stopTime 	54
scalar MyScenario.node[2].veinsmobility 	minSpeed 	2.3622236829018
scalar MyScenario.node[2].veinsmobility 	maxSpeed 	13.854448863864
scalar MyScenario.node[2].veinsmobility 	totalDistance 	580.76094889665
scalar MyScenario.node[2].veinsmobility 	totalCO2Emission 	165.75276067613
scalar MyScenario.node[199].appl 	generatedWSMs 	1
scalar MyScenario.node[199].appl 	receivedWSMs 	11
scalar MyScenario.node[199].appl 	generatedBSMs 	0
scalar MyScenario.node[199].appl 	receivedBSMs 	0
scalar MyScenario.node[199].appl 	generatedWSAs 	0
scalar MyScenario.node[199].appl 	receivedWSAs 	0
scalar MyScenario.node[199].nic.phy80211p 	busyTime 	0.00013488372093023
scalar MyScenario.node[199].nic.mac1609_4 	ReceivedUnicastPackets 	0
scalar MyScenario.node[199].nic.mac1609_4 	ReceivedBroadcasts 	11
scalar MyScenario.node[199].nic.mac1609_4 	SentPackets 	1
scalar MyScenario.node[199].nic.mac1609_4 	SNIRLostPackets 	14
scalar MyScenario.node[199].nic.mac1609_4 	RXTXLostPackets 	0
scalar MyScenario.node[199].nic.mac1609_4 	TotalLostPackets 	14
scalar MyScenario.node[199].nic.mac1609_4 	DroppedPacketsInMac 	0
scalar MyScenario.node[199].nic.mac1609_4 	TooLittleTime 	0
scalar MyScenario.node[199].nic.mac1609_4 	TimesIntoBackoff 	1
scalar MyScenario.node[199].nic.mac1609_4 	SlotsBackoff 	0
scalar MyScenario.node[199].nic.mac1609_4 	NumInternalContention 	0
scalar MyScenario.node[199].nic.mac1609_4 	totalBusyTime 	0.003713
scalar MyScenario.node[199].veinsmobility 	startTime 	11
scalar MyScenario.node[199].veinsmobility 	totalTime 	42
scalar MyScenario.node[199].veinsmobility 	stopTime 	54
scalar MyScenario.node[199].veinsmobility 	minSpeed 	3.8250293764778e-08
scalar MyScenario.node[199].veinsmobility 	maxSpeed 	13.839435098274
scalar MyScenario.node[199].veinsmobility 	totalDistance 	359.58843985724
scalar MyScenario.node[199].veinsmobility 	totalCO2Emission 	120.17663929452
scalar MyScenario.node[7].appl 	generatedWSMs 	1
scalar MyScenario.node[7].appl 	receivedWSMs 	2
scalar MyScenario.node[7].appl 	generatedBSMs 	0
scalar MyScenario.node[7].appl 	receivedBSMs 	0
scalar MyScenario.node[7].appl 	generatedWSAs 	0
scalar MyScenario.node[7].appl 	receivedWSAs 	0
scalar MyScenario.node[7].nic.phy80211p 	busyTime 	4.377358490566e-05
scalar MyScenario.node[7].nic.mac1609_4 	ReceivedUnicastPackets 	0
scalar MyScenario.node[7].nic.mac1609_4 	ReceivedBroadcasts 	2
scalar MyScenario.node[7].nic.mac1609_4 	SentPackets 	1
scalar MyScenario.node[7].nic.mac1609_4 	SNIRLostPackets 	8
scalar MyScenario.node[7].nic.mac1609_4 	RXTXLostPackets 	9
scalar MyScenario.node[7].nic.mac1609_4 	TotalLostPackets 	17
scalar MyScenario.node[7].nic.mac1609_4 	DroppedPacketsInMac 	0
scalar MyScenario.node[7].nic.mac1609_4 	TooLittleTime 	0
scalar MyScenario.node[7].nic.mac1609_4 	TimesIntoBackoff 	1
scalar MyScenario.node[7].nic.mac1609_4 	SlotsBackoff 	1
scalar MyScenario.node[7].nic.mac1609_4 	NumInternalContention 	0
scalar MyScenario.node[7].nic.mac1609_4 	totalBusyTime 	0.001393
scalar MyScenario.node[7].veinsmobility 	startTime 	1
scalar MyScenario.node[7].veinsmobility 	totalTime 	52
scalar MyScenario.node[7].veinsmobility 	stopTime 	54
scalar MyScenario.node[7].veinsmobility 	minSpeed 	0.99136445420878
scalar MyScenario.node[7].veinsmobility 	maxSpeed 	13.801735307905
scalar MyScenario.node[7].veinsmobility 	totalDistance 	568.95405265335
scalar MyScenario.node[7].veinsmobility 	totalCO2Emission 	169.11331789236
scalar MyScenario.node[56].appl 	generatedWSMs 	1
scalar MyScenario.node[56].appl 	receivedWSMs 	1
scalar MyScenario.node[56].appl 	generatedBSMs 	0
scalar MyScenario.node[56].appl 	receivedBSMs 	0
scalar MyScenario.node[56].appl 	generatedWSAs 	0
scalar MyScenario.node[56].appl 	receivedWSAs 	0
scalar MyScenario.node[56].nic.phy80211p 	busyTime 	3.9396226415094e-05
scalar MyScenario.node[56].nic.mac1609_4 	ReceivedUnicastPackets 	0
scalar MyScenario.node[56].nic.mac1609_4 	ReceivedBroadcasts 	1
scalar MyScenario.node[56].nic.mac1609_4 	SentPackets 	1
scalar MyScenario.node[56].nic.mac1609_4 	SNIRLostPackets 	8
scalar MyScenario.node[56].nic.mac1609_4 	RXTXLostPackets 	10
scalar MyScenario.node[56].nic.mac1609_4 	TotalLostPackets 	18
scalar MyScenario.node[56].nic.mac1609_4 	DroppedPacketsInMac 	0
scalar MyScenario.node[56].nic.mac1609_4 	TooLittleTime 	0
scalar MyScenario.node[56].nic.mac1609_4 	TimesIntoBackoff 	1
scalar MyScenario.node[56].nic.mac1609_4 	SlotsBackoff 	2
scalar MyScenario.node[56].nic.mac1609_4 	NumInternalContention 	0
scalar MyScenario.node[56].nic.mac1609_4 	totalBusyTime 	0.001161010884
scalar MyScenario.node[56].veinsmobility 	startTime 	1
scalar MyScenario.node[56].veinsmobility 	totalTime 	52
scalar MyScenario.node[56].veinsmobility 	stopTime 	54
scalar MyScenario.node[56].veinsmobility 	minSpeed 	2.0968911964213
scalar MyScenario.node[56].veinsmobility 	maxSpeed 	13.886399574298
scalar MyScenario.node[56].veinsmobility 	totalDistance 	583.7040059957
scalar MyScenario.node[56].veinsmobility 	totalCO2Emission 	166.66445657673
scalar MyScenario.node[16].appl 	generatedWSMs 	0
scalar MyScenario.node[16].appl 	receivedWSMs 	0
scalar MyScenario.node[16].appl 	generatedBSMs 	0
scalar MyScenario.node[16].appl 	receivedBSMs 	0
scalar MyScenario.node[16].appl 	generatedWSAs 	0
scalar MyScenario.node[16].appl 	receivedWSAs 	0
scalar MyScenario.node[16].nic.phy80211p 	busyTime 	2.1481481481481e-05
scalar MyScenario.node[16].nic.mac1609_4 	ReceivedUnicastPackets 	0
scalar MyScenario.node[16].nic.mac1609_4 	ReceivedBroadcasts 	0
scalar MyScenario.node[16].nic.mac1609_4 	SentPackets 	0
scalar MyScenario.node[16].nic.mac1609_4 	SNIRLostPackets 	5
scalar MyScenario.node[16].nic.mac1609_4 	RXTXLostPackets 	0
scalar MyScenario.node[16].nic.mac1609_4 	TotalLostPackets 	5
scalar MyScenario.node[16].nic.mac1609_4 	DroppedPacketsInMac 	0
scalar MyScenario.node[16].nic.mac1609_4 	TooLittleTime 	0
scalar MyScenario.node[16].nic.mac1609_4 	TimesIntoBackoff 	0
scalar MyScenario.node[16].nic.mac1609_4 	SlotsBackoff 	0
scalar MyScenario.node[16].nic.mac1609_4 	NumInternalContention 	0
scalar MyScenario.node[16].nic.mac1609_4 	totalBusyTime 	0.000232
scalar MyScenario.node[16].veinsmobility 	startTime 	1
scalar MyScenario.node[16].veinsmobility 	totalTime 	53
scalar MyScenario.node[16].veinsmobility 	stopTime 	55
scalar MyScenario.node[16].veinsmobility 	minSpeed 	0.00025159187711174
scalar MyScenario.node[16].veinsmobility 	maxSpeed 	13.80139580071
scalar MyScenario.node[16].veinsmobility 	totalDistance 	469.60900809798
scalar MyScenario.node[16].veinsmobility 	totalCO2Emission 	175.08897038723
scalar MyScenario.node[130].appl 	generatedWSMs 	1
scalar MyScenario.node[130].appl 	receivedWSMs 	1
scalar MyScenario.node[130].appl 	generatedBSMs 	0
scalar MyScenario.node[130].appl 	receivedBSMs 	0
scalar MyScenario.node[130].appl 	generatedWSAs 	0
scalar MyScenario.node[130].appl 	receivedWSAs 	0
scalar MyScenario.node[130].nic.phy80211p 	busyTime 	5.5851851851852e-05
scalar MyScenario.node[130].nic.mac1609_4 	ReceivedUnicastPackets 	0
scalar MyScenario.node[130].nic.mac1609_4 	ReceivedBroadcasts 	1
scalar MyScenario.node[130].nic.mac1609_4 	SentPackets 	1
scalar MyScenario.node[130].nic.mac1609_4 	SNIRLostPackets 	12
scalar MyScenario.node[130].nic.mac1609_4 	RXTXLostPackets 	6
scalar MyScenario.node[130].nic.mac1609_4 	TotalLostPackets 	18
scalar MyScenario.node[130].nic.mac1609_4 	DroppedPacketsInMac 	0
scalar MyScenario.node[130].nic.mac1609_4 	TooLittleTime 	0
scalar MyScenario.node[130].nic.mac1609_4 	TimesIntoBackoff 	1
scalar MyScenario.node[130].nic.mac1609_4 	SlotsBackoff 	0
scalar MyScenario.node[130].nic.mac1609_4 	NumInternalContention 	0
scalar MyScenario.node[130].nic.mac1609_4 	totalBusyTime 	0.001625006912
scalar MyScenario.node[130].veinsmobility 	startTime 	1
scalar MyScenario.node[130].veinsmobility 	totalTime 	53
scalar MyScenario.node[130].veinsmobility 	stopTime 	55
scalar MyScenario.node[130].veinsmobility 	minSpeed 	1.6756129406393
scalar MyScenario.node[130].veinsmobility 	maxSpeed 	13.889929381153
scalar MyScenario.node[130].veinsmobility 	totalDistance 	575.64968236819
scalar MyScenario.node[130].veinsmobility 	totalCO2Emission 	190.43853130972
scalar MyScenario.node[167].appl 	generatedWSMs 	1
scalar MyScenario.node[167].appl 	receivedWSMs 	8
scalar MyScenario.node[167].appl 	generatedBSMs 	0
scalar MyScenario.node[167].appl 	receivedBSMs 	0
scalar MyScenario.node[167].appl 	generatedWSAs 	0
scalar MyScenario.node[167].appl 	receivedWSAs 	0
scalar MyScenario.node[167].nic.phy80211p 	busyTime 	0.0001683137254902
scalar MyScenario.node[167].nic.mac1609_4 	ReceivedUnicastPackets 	0
scalar MyScenario.node[167].nic.mac1609_4 	ReceivedBroadcasts 	8
scalar MyScenario.node[167].nic.mac1609_4 	SentPackets 	1
scalar MyScenario.node[167].nic.mac1609_4 	SNIRLostPackets 	29
scalar MyScenario.node[167].nic.mac1609_4 	RXTXLostPackets 	6
scalar MyScenario.node[167].nic.mac1609_4 	TotalLostPackets 	35
scalar MyScenario.node[167].nic.mac1609_4 	DroppedPacketsInMac 	0
scalar MyScenario.node[167].nic.mac1609_4 	TooLittleTime 	0
scalar MyScenario.node[167].nic.mac1609_4 	TimesIntoBackoff 	1
scalar MyScenario.node[167].nic.mac1609_4 	SlotsBackoff 	2
scalar MyScenario.node[167].nic.mac1609_4 	NumInternalContention 	0
scalar MyScenario.node[167].nic.mac1609_4 	totalBusyTime 	0.003945
scalar MyScenario.node[167].veinsmobility 	startTime 	4
scalar MyScenario.node[167].veinsmobility 	totalTime 	50
scalar MyScenario.node[167].veinsmobility 	stopTime 	55
scalar MyScenario.node[167].veinsmobility 	minSpeed 	2.3273186883191
scalar MyScenario.node[167].veinsmobility 	maxSpeed 	13.861921070446
scalar MyScenario.node[167].veinsmobility 	totalDistance 	569.6661585037
scalar MyScenario.node[167].veinsmobility 	totalCO2Emission 	159.86887481628
scalar MyScenario.node[102].appl 	generatedWSMs 	0
scalar MyScenario.node[102].appl 	receivedWSMs 	0
scalar MyScenario.node[102].appl 	generatedBSMs 	0
scalar MyScenario.node[102].appl 	receivedBSMs 	0
scalar MyScenario.node[102].appl 	generatedWSAs 	0
scalar MyScenario.node[102].appl 	receivedWSAs 	0
scalar MyScenario.node[102].nic.phy80211p 	busyTime 	4.2181818181818e-05
scalar MyScenario.node[102].nic.mac1609_4 	ReceivedUnicastPackets 	0
scalar MyScenario.node[102].nic.mac1609_4 	ReceivedBroadcasts 	0
scalar MyScenario.node[102].nic.mac1609_4 	SentPackets 	0
scalar MyScenario.node[102].nic.mac1609_4 	SNIRLostPackets 	10
scalar MyScenario.node[102].nic.mac1609_4 	RXTXLostPackets 	0
scalar MyScenario.node[102].nic.mac1609_4 	TotalLostPackets 	10
scalar MyScenario.node[102].nic.mac1609_4 	DroppedPacketsInMac 	0
scalar MyScenario.node[102].nic.mac1609_4 	TooLittleTime 	0
scalar MyScenario.node[102].nic.mac1609_4 	TimesIntoBackoff 	0
scalar MyScenario.node[102].nic.mac1609_4 	SlotsBackoff 	0
scalar MyScenario.node[102].nic.mac1609_4 	NumInternalContention 	0
scalar MyScenario.node[102].nic.mac1609_4 	totalBusyTime 	0.000696
scalar MyScenario.node[102].veinsmobility 	startTime 	1
scalar MyScenario.node[102].veinsmobility 	totalTime 	54
scalar MyScenario.node[102].veinsmobility 	stopTime 	56
scalar MyScenario.node[102].veinsmobility 	minSpeed 	0.01647255557635
scalar MyScenario.node[102].veinsmobility 	maxSpeed 	13.75264095529
scalar MyScenario.node[102].veinsmobility 	totalDistance 	476.03783352596
scalar MyScenario.node[102].veinsmobility 	totalCO2Emission 	182.18162141733
scalar MyScenario.node[166].appl 	generatedWSMs 	0
scalar MyScenario.node[166].appl 	receivedWSMs 	0
scalar MyScenario.node[166].appl 	generatedBSMs 	0
scalar MyScenario.node[166].appl 	receivedBSMs 	0
scalar MyScenario.node[166].appl 	generatedWSAs 	0
scalar MyScenario.node[166].appl 	receivedWSAs 	0
scalar MyScenario.node[166].nic.phy80211p 	busyTime 	6.6923076923077e-05
scalar MyScenario.node[166].nic.mac1609_4 	ReceivedUnicastPackets 	0
scalar MyScenario.node[166].nic.mac1609_4 	ReceivedBroadcasts 	0
scalar MyScenario.node[166].nic.mac1609_4 	SentPackets 	0
scalar MyScenario.node[166].nic.mac1609_4 	SNIRLostPackets 	15
scalar MyScenario.node[166].nic.mac1609_4 	RXTXLostPackets 	0
scalar MyScenario.node[166].nic.mac1609_4 	TotalLostPackets 	15
scalar MyScenario.node[166].nic.mac1609_4 	DroppedPacketsInMac 	0
scalar MyScenario.node[166].nic.mac1609_4 	TooLittleTime 	0
scalar MyScenario.node[166].nic.mac1609_4 	TimesIntoBackoff 	0
scalar MyScenario.node[166].nic.mac1609_4 	SlotsBackoff 	0
scalar MyScenario.node[166].nic.mac1609_4 	NumInternalContention 	0
scalar MyScenario.node[166].nic.mac1609_4 	totalBusyTime 	0.000696
scalar MyScenario.node[166].veinsmobility 	startTime 	4
scalar MyScenario.node[166].veinsmobility 	totalTime 	51
scalar MyScenario.node[166].veinsmobility 	stopTime 	56
scalar MyScenario.node[166].veinsmobility 	minSpeed 	2.0300524750724
scalar MyScenario.node[166].veinsmobility 	maxSpeed 	13.84403128766
scalar MyScenario.node[166].veinsmobility 	totalDistance 	571.01076773853
scalar MyScenario.node[166].veinsmobility 	totalCO2Emission 	161.10769217778
scalar MyScenario.node[71].appl 	generatedWSMs 	0
scalar MyScenario.node[71].appl 	receivedWSMs 	0
scalar MyScenario.node[71].appl 	generatedBSMs 	0
scalar MyScenario.node[71].appl 	receivedBSMs 	0
scalar MyScenario.node[71].appl 	generatedWSAs 	0
scalar MyScenario.node[71].appl 	receivedWSAs 	0
scalar MyScenario.node[71].nic.phy80211p 	busyTime 	4.2181818181818e-06
scalar MyScenario.node[71].nic.mac1609_4 	ReceivedUnicastPackets 	0
scalar MyScenario.node[71].nic.mac1609_4 	ReceivedBroadcasts 	0
scalar MyScenario.node[71].nic.mac1609_4 	SentPackets 	0
scalar MyScenario.node[71].nic.mac1609_4 	SNIRLostPackets 	1
scalar MyScenario.node[71].nic.mac1609_4 	RXTXLostPackets 	0
scalar MyScenario.node[71].nic.mac1609_4 	TotalLostPackets 	1
scalar MyScenario.node[71].nic.mac1609_4 	DroppedPacketsInMac 	0
scalar MyScenario.node[71].nic.mac1609_4 	TooLittleTime 	0
scalar MyScenario.node[71].nic.mac1609_4 	TimesIntoBackoff 	0
scalar MyScenario.node[71].nic.mac1609_4 	SlotsBackoff 	0
scalar MyScenario.node[71].nic.mac1609_4 	NumInternalContention 	0
scalar MyScenario.node[71].nic.mac1609_4 	totalBusyTime 	0.000232
scalar MyScenario.node[71].veinsmobility 	startTime 	1
scalar MyScenario.node[71].veinsmobility 	totalTime 	54
scalar MyScenario.node[71].veinsmobility 	stopTime 	56
scalar MyScenario.node[71].veinsmobility 	minSpeed 	2.4732063131174
scalar MyScenario.node[71].veinsmobility 	maxSpeed 	13.855427567917
scalar MyScenario.node[71].veinsmobility 	totalDistance 	678.99924193753
scalar MyScenario.node[71].veinsmobility 	totalCO2Emission 	141.44675828587
scalar MyScenario.node[108].appl 	generatedWSMs 	1
scalar MyScenario.node[108].appl 	receivedWSMs 	4
scalar MyScenario.node[108].appl 	generatedBSMs 	0
scalar MyScenario.node[108].appl 	receivedBSMs 	0
scalar MyScenario.node[108].appl 	generatedWSAs 	0
scalar MyScenario.node[108].appl 	receivedWSAs 	0
scalar MyScenario.node[108].nic.phy80211p 	busyTime 	8.7e-05
scalar MyScenario.node[108].nic.mac1609_4 	ReceivedUnicastPackets 	0
scalar MyScenario.node[108].nic.mac1609_4 	ReceivedBroadcasts 	4
scalar MyScenario.node[108].nic.mac1609_4 	SentPackets 	1
[...]
scalar MyScenario.node[181].nic.mac1609_4 	RXTXLostPackets 	6
scalar MyScenario.node[181].nic.mac1609_4 	TotalLostPackets 	24
scalar MyScenario.node[181].nic.mac1609_4 	DroppedPacketsInMac 	0
scalar MyScenario.node[181].nic.mac1609_4 	TooLittleTime 	0
scalar MyScenario.node[181].nic.mac1609_4 	TimesIntoBackoff 	1
scalar MyScenario.node[181].nic.mac1609_4 	SlotsBackoff 	0
scalar MyScenario.node[181].nic.mac1609_4 	NumInternalContention 	0
scalar MyScenario.node[181].nic.mac1609_4 	totalBusyTime 	0.002321
scalar MyScenario.node[181].veinsmobility 	startTime 	4
scalar MyScenario.node[181].veinsmobility 	totalTime 	125
scalar MyScenario.node[181].veinsmobility 	stopTime 	130
scalar MyScenario.node[181].veinsmobility 	minSpeed 	6.8207184661371e-05
scalar MyScenario.node[181].veinsmobility 	maxSpeed 	13.845607522572
scalar MyScenario.node[181].veinsmobility 	totalDistance 	1057.1269909903
scalar MyScenario.node[181].veinsmobility 	totalCO2Emission 	338.85303165803
scalar MyScenario.node[179].appl 	generatedWSMs 	0
scalar MyScenario.node[179].appl 	receivedWSMs 	0
scalar MyScenario.node[179].appl 	generatedBSMs 	0
scalar MyScenario.node[179].appl 	receivedBSMs 	0
scalar MyScenario.node[179].appl 	generatedWSAs 	0
scalar MyScenario.node[179].appl 	receivedWSAs 	0
scalar MyScenario.node[179].nic.phy80211p 	busyTime 	1.26875e-05
scalar MyScenario.node[179].nic.mac1609_4 	ReceivedUnicastPackets 	0
scalar MyScenario.node[179].nic.mac1609_4 	ReceivedBroadcasts 	0
scalar MyScenario.node[179].nic.mac1609_4 	SentPackets 	0
scalar MyScenario.node[179].nic.mac1609_4 	SNIRLostPackets 	7
scalar MyScenario.node[179].nic.mac1609_4 	RXTXLostPackets 	0
scalar MyScenario.node[179].nic.mac1609_4 	TotalLostPackets 	7
scalar MyScenario.node[179].nic.mac1609_4 	DroppedPacketsInMac 	0
scalar MyScenario.node[179].nic.mac1609_4 	TooLittleTime 	0
scalar MyScenario.node[179].nic.mac1609_4 	TimesIntoBackoff 	0
scalar MyScenario.node[179].nic.mac1609_4 	SlotsBackoff 	0
scalar MyScenario.node[179].nic.mac1609_4 	NumInternalContention 	0
scalar MyScenario.node[179].nic.mac1609_4 	totalBusyTime 	0.000464
scalar MyScenario.node[179].veinsmobility 	startTime 	4
scalar MyScenario.node[179].veinsmobility 	totalTime 	127
scalar MyScenario.node[179].veinsmobility 	stopTime 	132
scalar MyScenario.node[179].veinsmobility 	minSpeed 	0.00037553982086812
scalar MyScenario.node[179].veinsmobility 	maxSpeed 	13.834754702449
scalar MyScenario.node[179].veinsmobility 	totalDistance 	1170.9861409762
scalar MyScenario.node[179].veinsmobility 	totalCO2Emission 	425.16121981786
scalar MyScenario.node[131].appl 	generatedWSMs 	1
scalar MyScenario.node[131].appl 	receivedWSMs 	4
scalar MyScenario.node[131].appl 	generatedBSMs 	0
scalar MyScenario.node[131].appl 	receivedBSMs 	0
scalar MyScenario.node[131].appl 	generatedWSAs 	0
scalar MyScenario.node[131].appl 	receivedWSAs 	0
scalar MyScenario.node[131].nic.phy80211p 	busyTime 	2.8121212121212e-05
scalar MyScenario.node[131].nic.mac1609_4 	ReceivedUnicastPackets 	0
scalar MyScenario.node[131].nic.mac1609_4 	ReceivedBroadcasts 	4
scalar MyScenario.node[131].nic.mac1609_4 	SentPackets 	1
scalar MyScenario.node[131].nic.mac1609_4 	SNIRLostPackets 	12
scalar MyScenario.node[131].nic.mac1609_4 	RXTXLostPackets 	9
scalar MyScenario.node[131].nic.mac1609_4 	TotalLostPackets 	21
scalar MyScenario.node[131].nic.mac1609_4 	DroppedPacketsInMac 	0
scalar MyScenario.node[131].nic.mac1609_4 	TooLittleTime 	0
scalar MyScenario.node[131].nic.mac1609_4 	TimesIntoBackoff 	1
scalar MyScenario.node[131].nic.mac1609_4 	SlotsBackoff 	1
scalar MyScenario.node[131].nic.mac1609_4 	NumInternalContention 	0
scalar MyScenario.node[131].nic.mac1609_4 	totalBusyTime 	0.002089
scalar MyScenario.node[131].veinsmobility 	startTime 	1
scalar MyScenario.node[131].veinsmobility 	totalTime 	131
scalar MyScenario.node[131].veinsmobility 	stopTime 	133
scalar MyScenario.node[131].veinsmobility 	minSpeed 	0.13577988344103
scalar MyScenario.node[131].veinsmobility 	maxSpeed 	13.865489269514
scalar MyScenario.node[131].veinsmobility 	totalDistance 	1473.4287421913
scalar MyScenario.node[131].veinsmobility 	totalCO2Emission 	446.82335237273
scalar MyScenario.node[68].appl 	generatedWSMs 	0
scalar MyScenario.node[68].appl 	receivedWSMs 	0
scalar MyScenario.node[68].appl 	generatedBSMs 	0
scalar MyScenario.node[68].appl 	receivedBSMs 	0
scalar MyScenario.node[68].appl 	generatedWSAs 	0
scalar MyScenario.node[68].appl 	receivedWSAs 	0
scalar MyScenario.node[68].nic.phy80211p 	busyTime 	1.7575757575758e-06
scalar MyScenario.node[68].nic.mac1609_4 	ReceivedUnicastPackets 	0
scalar MyScenario.node[68].nic.mac1609_4 	ReceivedBroadcasts 	0
scalar MyScenario.node[68].nic.mac1609_4 	SentPackets 	0
scalar MyScenario.node[68].nic.mac1609_4 	SNIRLostPackets 	1
scalar MyScenario.node[68].nic.mac1609_4 	RXTXLostPackets 	0
scalar MyScenario.node[68].nic.mac1609_4 	TotalLostPackets 	1
scalar MyScenario.node[68].nic.mac1609_4 	DroppedPacketsInMac 	0
scalar MyScenario.node[68].nic.mac1609_4 	TooLittleTime 	0
scalar MyScenario.node[68].nic.mac1609_4 	TimesIntoBackoff 	0
scalar MyScenario.node[68].nic.mac1609_4 	SlotsBackoff 	0
scalar MyScenario.node[68].nic.mac1609_4 	NumInternalContention 	0
scalar MyScenario.node[68].nic.mac1609_4 	totalBusyTime 	0.000232
scalar MyScenario.node[68].veinsmobility 	startTime 	1
scalar MyScenario.node[68].veinsmobility 	totalTime 	131
scalar MyScenario.node[68].veinsmobility 	stopTime 	133
scalar MyScenario.node[68].veinsmobility 	minSpeed 	0.089068132570326
scalar MyScenario.node[68].veinsmobility 	maxSpeed 	13.895069185644
scalar MyScenario.node[68].veinsmobility 	totalDistance 	1465.7637104173
scalar MyScenario.node[68].veinsmobility 	totalCO2Emission 	408.91144298353
scalar MyScenario.node[88].appl 	generatedWSMs 	0
scalar MyScenario.node[88].appl 	receivedWSMs 	0
scalar MyScenario.node[88].appl 	generatedBSMs 	0
scalar MyScenario.node[88].appl 	receivedBSMs 	0
scalar MyScenario.node[88].appl 	generatedWSAs 	0
scalar MyScenario.node[88].appl 	receivedWSAs 	0
scalar MyScenario.node[88].nic.phy80211p 	busyTime 	2.7701492537313e-05
scalar MyScenario.node[88].nic.mac1609_4 	ReceivedUnicastPackets 	0
scalar MyScenario.node[88].nic.mac1609_4 	ReceivedBroadcasts 	0
scalar MyScenario.node[88].nic.mac1609_4 	SentPackets 	0
scalar MyScenario.node[88].nic.mac1609_4 	SNIRLostPackets 	16
scalar MyScenario.node[88].nic.mac1609_4 	RXTXLostPackets 	0
scalar MyScenario.node[88].nic.mac1609_4 	TotalLostPackets 	16
scalar MyScenario.node[88].nic.mac1609_4 	DroppedPacketsInMac 	0
scalar MyScenario.node[88].nic.mac1609_4 	TooLittleTime 	0
scalar MyScenario.node[88].nic.mac1609_4 	TimesIntoBackoff 	0
scalar MyScenario.node[88].nic.mac1609_4 	SlotsBackoff 	0
scalar MyScenario.node[88].nic.mac1609_4 	NumInternalContention 	0
scalar MyScenario.node[88].nic.mac1609_4 	totalBusyTime 	0.001392
scalar MyScenario.node[88].veinsmobility 	startTime 	1
scalar MyScenario.node[88].veinsmobility 	totalTime 	133
scalar MyScenario.node[88].veinsmobility 	stopTime 	135
scalar MyScenario.node[88].veinsmobility 	minSpeed 	3.1015406239211e-06
scalar MyScenario.node[88].veinsmobility 	maxSpeed 	13.837175121414
scalar MyScenario.node[88].veinsmobility 	totalDistance 	1258.9100084017
scalar MyScenario.node[88].veinsmobility 	totalCO2Emission 	416.41949803161
scalar MyScenario.node[163].appl 	generatedWSMs 	1
scalar MyScenario.node[163].appl 	receivedWSMs 	1
scalar MyScenario.node[163].appl 	generatedBSMs 	0
scalar MyScenario.node[163].appl 	receivedBSMs 	0
scalar MyScenario.node[163].appl 	generatedWSAs 	0
scalar MyScenario.node[163].appl 	receivedWSAs 	0
scalar MyScenario.node[163].nic.phy80211p 	busyTime 	1.9333333333333e-05
scalar MyScenario.node[163].nic.mac1609_4 	ReceivedUnicastPackets 	0
scalar MyScenario.node[163].nic.mac1609_4 	ReceivedBroadcasts 	1
scalar MyScenario.node[163].nic.mac1609_4 	SentPackets 	1
scalar MyScenario.node[163].nic.mac1609_4 	SNIRLostPackets 	10
scalar MyScenario.node[163].nic.mac1609_4 	RXTXLostPackets 	2
scalar MyScenario.node[163].nic.mac1609_4 	TotalLostPackets 	12
scalar MyScenario.node[163].nic.mac1609_4 	DroppedPacketsInMac 	0
scalar MyScenario.node[163].nic.mac1609_4 	TooLittleTime 	0
scalar MyScenario.node[163].nic.mac1609_4 	TimesIntoBackoff 	1
scalar MyScenario.node[163].nic.mac1609_4 	SlotsBackoff 	2
scalar MyScenario.node[163].nic.mac1609_4 	NumInternalContention 	0
scalar MyScenario.node[163].nic.mac1609_4 	totalBusyTime 	0.000697
scalar MyScenario.node[163].veinsmobility 	startTime 	4
scalar MyScenario.node[163].veinsmobility 	totalTime 	131
scalar MyScenario.node[163].veinsmobility 	stopTime 	136
scalar MyScenario.node[163].veinsmobility 	minSpeed 	1.8833854896482
scalar MyScenario.node[163].veinsmobility 	maxSpeed 	13.884909026837
scalar MyScenario.node[163].veinsmobility 	totalDistance 	1660.7356924359
scalar MyScenario.node[163].veinsmobility 	totalCO2Emission 	339.79319689184
scalar MyScenario.node[65].appl 	generatedWSMs 	1
scalar MyScenario.node[65].appl 	receivedWSMs 	1
scalar MyScenario.node[65].appl 	generatedBSMs 	0
scalar MyScenario.node[65].appl 	receivedBSMs 	0
scalar MyScenario.node[65].appl 	generatedWSAs 	0
scalar MyScenario.node[65].appl 	receivedWSAs 	0
scalar MyScenario.node[65].nic.phy80211p 	busyTime 	1.0160583941606e-05
scalar MyScenario.node[65].nic.mac1609_4 	ReceivedUnicastPackets 	0
scalar MyScenario.node[65].nic.mac1609_4 	ReceivedBroadcasts 	1
scalar MyScenario.node[65].nic.mac1609_4 	SentPackets 	1
scalar MyScenario.node[65].nic.mac1609_4 	SNIRLostPackets 	5
scalar MyScenario.node[65].nic.mac1609_4 	RXTXLostPackets 	5
scalar MyScenario.node[65].nic.mac1609_4 	TotalLostPackets 	10
scalar MyScenario.node[65].nic.mac1609_4 	DroppedPacketsInMac 	0
scalar MyScenario.node[65].nic.mac1609_4 	TooLittleTime 	0
scalar MyScenario.node[65].nic.mac1609_4 	TimesIntoBackoff 	1
scalar MyScenario.node[65].nic.mac1609_4 	SlotsBackoff 	2
scalar MyScenario.node[65].nic.mac1609_4 	NumInternalContention 	0
scalar MyScenario.node[65].nic.mac1609_4 	totalBusyTime 	0.000929
scalar MyScenario.node[65].veinsmobility 	startTime 	1
scalar MyScenario.node[65].veinsmobility 	totalTime 	136
scalar MyScenario.node[65].veinsmobility 	stopTime 	138
scalar MyScenario.node[65].veinsmobility 	minSpeed 	0.0099900332471878
scalar MyScenario.node[65].veinsmobility 	maxSpeed 	13.849664594978
scalar MyScenario.node[65].veinsmobility 	totalDistance 	1257.6690428994
scalar MyScenario.node[65].veinsmobility 	totalCO2Emission 	419.47164669854
scalar MyScenario.node[143].appl 	generatedWSMs 	1
scalar MyScenario.node[143].appl 	receivedWSMs 	3
scalar MyScenario.node[143].appl 	generatedBSMs 	0
scalar MyScenario.node[143].appl 	receivedBSMs 	0
scalar MyScenario.node[143].appl 	generatedWSAs 	0
scalar MyScenario.node[143].appl 	receivedWSAs 	0
scalar MyScenario.node[143].nic.phy80211p 	busyTime 	2.6705035971223e-05
scalar MyScenario.node[143].nic.mac1609_4 	ReceivedUnicastPackets 	0
scalar MyScenario.node[143].nic.mac1609_4 	ReceivedBroadcasts 	3
scalar MyScenario.node[143].nic.mac1609_4 	SentPackets 	1
scalar MyScenario.node[143].nic.mac1609_4 	SNIRLostPackets 	13
scalar MyScenario.node[143].nic.mac1609_4 	RXTXLostPackets 	6
scalar MyScenario.node[143].nic.mac1609_4 	TotalLostPackets 	19
scalar MyScenario.node[143].nic.mac1609_4 	DroppedPacketsInMac 	0
scalar MyScenario.node[143].nic.mac1609_4 	TooLittleTime 	0
scalar MyScenario.node[143].nic.mac1609_4 	TimesIntoBackoff 	1
scalar MyScenario.node[143].nic.mac1609_4 	SlotsBackoff 	0
scalar MyScenario.node[143].nic.mac1609_4 	NumInternalContention 	0
scalar MyScenario.node[143].nic.mac1609_4 	totalBusyTime 	0.001625
scalar MyScenario.node[143].veinsmobility 	startTime 	1
scalar MyScenario.node[143].veinsmobility 	totalTime 	138
scalar MyScenario.node[143].veinsmobility 	stopTime 	140
scalar MyScenario.node[143].veinsmobility 	minSpeed 	1.2530698851584e-05
scalar MyScenario.node[143].veinsmobility 	maxSpeed 	13.882803342235
scalar MyScenario.node[143].veinsmobility 	totalDistance 	1172.4642091182
scalar MyScenario.node[143].veinsmobility 	totalCO2Emission 	413.23676022776
scalar MyScenario.node[59].appl 	generatedWSMs 	0
scalar MyScenario.node[59].appl 	receivedWSMs 	0
scalar MyScenario.node[59].appl 	generatedBSMs 	0
scalar MyScenario.node[59].appl 	receivedBSMs 	0
scalar MyScenario.node[59].appl 	generatedWSAs 	0
scalar MyScenario.node[59].appl 	receivedWSAs 	0
scalar MyScenario.node[59].nic.phy80211p 	busyTime 	9.8723404255319e-06
scalar MyScenario.node[59].nic.mac1609_4 	ReceivedUnicastPackets 	0
scalar MyScenario.node[59].nic.mac1609_4 	ReceivedBroadcasts 	0
scalar MyScenario.node[59].nic.mac1609_4 	SentPackets 	0
scalar MyScenario.node[59].nic.mac1609_4 	SNIRLostPackets 	6
scalar MyScenario.node[59].nic.mac1609_4 	RXTXLostPackets 	0
scalar MyScenario.node[59].nic.mac1609_4 	TotalLostPackets 	6
scalar MyScenario.node[59].nic.mac1609_4 	DroppedPacketsInMac 	0
scalar MyScenario.node[59].nic.mac1609_4 	TooLittleTime 	0
scalar MyScenario.node[59].nic.mac1609_4 	TimesIntoBackoff 	0
scalar MyScenario.node[59].nic.mac1609_4 	SlotsBackoff 	0
scalar MyScenario.node[59].nic.mac1609_4 	NumInternalContention 	0
scalar MyScenario.node[59].nic.mac1609_4 	totalBusyTime 	0.000464
scalar MyScenario.node[59].veinsmobility 	startTime 	1
scalar MyScenario.node[59].veinsmobility 	totalTime 	140
scalar MyScenario.node[59].veinsmobility 	stopTime 	142
scalar MyScenario.node[59].veinsmobility 	minSpeed 	0.0032839812598593
scalar MyScenario.node[59].veinsmobility 	maxSpeed 	13.844639115082
scalar MyScenario.node[59].veinsmobility 	totalDistance 	1360.7705685812
scalar MyScenario.node[59].veinsmobility 	totalCO2Emission 	459.37629714261
scalar MyScenario.node[38].appl 	generatedWSMs 	0
scalar MyScenario.node[38].appl 	receivedWSMs 	0
scalar MyScenario.node[38].appl 	generatedBSMs 	0
scalar MyScenario.node[38].appl 	receivedBSMs 	0
scalar MyScenario.node[38].appl 	generatedWSAs 	0
scalar MyScenario.node[38].appl 	receivedWSAs 	0
scalar MyScenario.node[38].nic.phy80211p 	busyTime 	0
scalar MyScenario.node[38].nic.mac1609_4 	ReceivedUnicastPackets 	0
scalar MyScenario.node[38].nic.mac1609_4 	ReceivedBroadcasts 	0
scalar MyScenario.node[38].nic.mac1609_4 	SentPackets 	0
scalar MyScenario.node[38].nic.mac1609_4 	SNIRLostPackets 	0
scalar MyScenario.node[38].nic.mac1609_4 	RXTXLostPackets 	0
scalar MyScenario.node[38].nic.mac1609_4 	TotalLostPackets 	0
scalar MyScenario.node[38].nic.mac1609_4 	DroppedPacketsInMac 	0
scalar MyScenario.node[38].nic.mac1609_4 	TooLittleTime 	0
scalar MyScenario.node[38].nic.mac1609_4 	TimesIntoBackoff 	0
scalar MyScenario.node[38].nic.mac1609_4 	SlotsBackoff 	0
scalar MyScenario.node[38].nic.mac1609_4 	NumInternalContention 	0
scalar MyScenario.node[38].nic.mac1609_4 	totalBusyTime 	0
scalar MyScenario.node[38].veinsmobility 	startTime 	1
scalar MyScenario.node[38].veinsmobility 	totalTime 	140
scalar MyScenario.node[38].veinsmobility 	stopTime 	142
scalar MyScenario.node[38].veinsmobility 	minSpeed 	2.4075428930344
scalar MyScenario.node[38].veinsmobility 	maxSpeed 	13.888318045065
scalar MyScenario.node[38].veinsmobility 	totalDistance 	1665.986932057
scalar MyScenario.node[38].veinsmobility 	totalCO2Emission 	429.99083049856
scalar MyScenario.node[81].appl 	generatedWSMs 	1
scalar MyScenario.node[81].appl 	receivedWSMs 	3
scalar MyScenario.node[81].appl 	generatedBSMs 	0
scalar MyScenario.node[81].appl 	receivedBSMs 	0
scalar MyScenario.node[81].appl 	generatedWSAs 	0
scalar MyScenario.node[81].appl 	receivedWSAs 	0
scalar MyScenario.node[81].nic.phy80211p 	busyTime 	1.2979020979021e-05
scalar MyScenario.node[81].nic.mac1609_4 	ReceivedUnicastPackets 	0
scalar MyScenario.node[81].nic.mac1609_4 	ReceivedBroadcasts 	3
scalar MyScenario.node[81].nic.mac1609_4 	SentPackets 	1
scalar MyScenario.node[81].nic.mac1609_4 	SNIRLostPackets 	5
scalar MyScenario.node[81].nic.mac1609_4 	RXTXLostPackets 	9
scalar MyScenario.node[81].nic.mac1609_4 	TotalLostPackets 	14
scalar MyScenario.node[81].nic.mac1609_4 	DroppedPacketsInMac 	0
scalar MyScenario.node[81].nic.mac1609_4 	TooLittleTime 	0
scalar MyScenario.node[81].nic.mac1609_4 	TimesIntoBackoff 	1
scalar MyScenario.node[81].nic.mac1609_4 	SlotsBackoff 	2
scalar MyScenario.node[81].nic.mac1609_4 	NumInternalContention 	0
scalar MyScenario.node[81].nic.mac1609_4 	totalBusyTime 	0.001393
scalar MyScenario.node[81].veinsmobility 	startTime 	1
scalar MyScenario.node[81].veinsmobility 	totalTime 	142
scalar MyScenario.node[81].veinsmobility 	stopTime 	144
scalar MyScenario.node[81].veinsmobility 	minSpeed 	1.5301546487259
scalar MyScenario.node[81].veinsmobility 	maxSpeed 	13.883841963881
scalar MyScenario.node[81].veinsmobility 	totalDistance 	1668.6330062303
scalar MyScenario.node[81].veinsmobility 	totalCO2Emission 	435.86507462668
scalar MyScenario.node[177].appl 	generatedWSMs 	1
scalar MyScenario.node[177].appl 	receivedWSMs 	1
scalar MyScenario.node[177].appl 	generatedBSMs 	0
scalar MyScenario.node[177].appl 	receivedBSMs 	0
scalar MyScenario.node[177].appl 	generatedWSAs 	0
scalar MyScenario.node[177].appl 	receivedWSAs 	0
scalar MyScenario.node[177].nic.phy80211p 	busyTime 	1.1123287671233e-05
scalar MyScenario.node[177].nic.mac1609_4 	ReceivedUnicastPackets 	0
scalar MyScenario.node[177].nic.mac1609_4 	ReceivedBroadcasts 	1
scalar MyScenario.node[177].nic.mac1609_4 	SentPackets 	1
scalar MyScenario.node[177].nic.mac1609_4 	SNIRLostPackets 	6
scalar MyScenario.node[177].nic.mac1609_4 	RXTXLostPackets 	7
scalar MyScenario.node[177].nic.mac1609_4 	TotalLostPackets 	13
scalar MyScenario.node[177].nic.mac1609_4 	DroppedPacketsInMac 	0
scalar MyScenario.node[177].nic.mac1609_4 	TooLittleTime 	0
scalar MyScenario.node[177].nic.mac1609_4 	TimesIntoBackoff 	1
scalar MyScenario.node[177].nic.mac1609_4 	SlotsBackoff 	2
scalar MyScenario.node[177].nic.mac1609_4 	NumInternalContention 	0
scalar MyScenario.node[177].nic.mac1609_4 	totalBusyTime 	0.00116113298
scalar MyScenario.node[177].veinsmobility 	startTime 	4
scalar MyScenario.node[177].veinsmobility 	totalTime 	145
scalar MyScenario.node[177].veinsmobility 	stopTime 	150
scalar MyScenario.node[177].veinsmobility 	minSpeed 	7.311952948306e-05
scalar MyScenario.node[177].veinsmobility 	maxSpeed 	13.870172166987
scalar MyScenario.node[177].veinsmobility 	totalDistance 	1470.2959636665
scalar MyScenario.node[177].veinsmobility 	totalCO2Emission 	427.75084601262
scalar MyScenario.node[22].appl 	generatedWSMs 	1
scalar MyScenario.node[22].appl 	receivedWSMs 	1
scalar MyScenario.node[22].appl 	generatedBSMs 	0
scalar MyScenario.node[22].appl 	receivedBSMs 	0
scalar MyScenario.node[22].appl 	generatedWSAs 	0
scalar MyScenario.node[22].appl 	receivedWSAs 	0
scalar MyScenario.node[22].nic.phy80211p 	busyTime 	7.4838709677419e-06
scalar MyScenario.node[22].nic.mac1609_4 	ReceivedUnicastPackets 	0
scalar MyScenario.node[22].nic.mac1609_4 	ReceivedBroadcasts 	1
scalar MyScenario.node[22].nic.mac1609_4 	SentPackets 	1
scalar MyScenario.node[22].nic.mac1609_4 	SNIRLostPackets 	4
scalar MyScenario.node[22].nic.mac1609_4 	RXTXLostPackets 	8
scalar MyScenario.node[22].nic.mac1609_4 	TotalLostPackets 	12
scalar MyScenario.node[22].nic.mac1609_4 	DroppedPacketsInMac 	0
scalar MyScenario.node[22].nic.mac1609_4 	TooLittleTime 	0
scalar MyScenario.node[22].nic.mac1609_4 	TimesIntoBackoff 	1
scalar MyScenario.node[22].nic.mac1609_4 	SlotsBackoff 	3
scalar MyScenario.node[22].nic.mac1609_4 	NumInternalContention 	0
scalar MyScenario.node[22].nic.mac1609_4 	totalBusyTime 	0.000929
scalar MyScenario.node[22].veinsmobility 	startTime 	1
scalar MyScenario.node[22].veinsmobility 	totalTime 	154
scalar MyScenario.node[22].veinsmobility 	stopTime 	156
scalar MyScenario.node[22].veinsmobility 	minSpeed 	3.0988708550856e-05
scalar MyScenario.node[22].veinsmobility 	maxSpeed 	13.888565064804
scalar MyScenario.node[22].veinsmobility 	totalDistance 	1464.238180015
scalar MyScenario.node[22].veinsmobility 	totalCO2Emission 	453.64440082989
