version 2
run General-37-20170829-17:51:20-8100
attr configname General
attr datetime 20170829-17:51:20
attr density 400
attr experiment General
attr inifile omnetpp.ini
attr iterationvars $density=400
attr iterationvars2 "$density=400, $repetition=7"
attr measurement $density=400
attr network com.liborio.pi.MyScenario
attr processid 8100
attr repetition 7
attr replication #7
attr resultdir results
attr runnumber 37
attr seedset 7
param **.coreDebug false
param **.debug false
param *.**.nic.mac1609_4.bitrate 6Mbps
param *.**.nic.mac1609_4.txPower 20mW
param *.**.nic.mac1609_4.useServiceChannel true
param *.**.nic.phy80211p.analogueModels "xmldoc(\"config.xml\")"
param *.**.nic.phy80211p.antenna "xmldoc(\"antenna.xml\", \"/root/Antenna[@id='monopole']\")"
param *.**.nic.phy80211p.decider "xmldoc(\"config.xml\")"
param *.**.nic.phy80211p.sensitivity -84.39dBm
param *.**.nic.phy80211p.thermalNoise -110dBm
param *.**.nic.phy80211p.usePropagationDelay true
param *.**.nic.phy80211p.useThermalNoise true
param *.annotations.draw true
param *.connectionManager.drawMaxIntfDist false
param *.connectionManager.maxInterfDist 2600m
param *.connectionManager.sendDirect true
param *.manager.autoShutdown true
param *.manager.host "\"localhost\""
param *.manager.launchConfig "xmldoc(string(${density = 100, 200, 300, 400})+\"_\"+ string(${repetition})+\".launchd.xml\")"
param *.manager.port 9999
param *.manager.updateInterval 1s
param *.node[*].appl.beaconInterval 1s
param *.node[*].appl.dataOnSch true
param *.node[*].appl.headerLength "80 bit"
param *.node[*].appl.isSource false
param *.node[*].appl.numMsgs 100
param *.node[*].appl.sendBeacons false
param *.node[*].appl.stopTrafficTime 130s
param *.node[*].appl.wsmInterval 3s
param *.node[*].applType "\"Flooding\""
param *.node[*].veinsmobility.x 0
param *.node[*].veinsmobility.y 0
param *.node[*].veinsmobility.z 1.895
param *.node[*].veinsmobilityType.debug true
param *.node[0].appl.isSource true
param *.playgroundSizeX 2500m
param *.playgroundSizeY 2500m
param *.playgroundSizeZ 50m

scalar . 	density 	400
scalar MyScenario.node[208].appl 	generatedWSMs 	0
scalar MyScenario.node[208].appl 	receivedWSMs 	0
scalar MyScenario.node[208].appl 	generatedBSMs 	0
scalar MyScenario.node[208].appl 	receivedBSMs 	0
scalar MyScenario.node[208].appl 	generatedWSAs 	0
scalar MyScenario.node[208].appl 	receivedWSAs 	0
scalar MyScenario.node[208].nic.phy80211p 	busyTime 	0
scalar MyScenario.node[208].nic.mac1609_4 	ReceivedUnicastPackets 	0
scalar MyScenario.node[208].nic.mac1609_4 	ReceivedBroadcasts 	0
scalar MyScenario.node[208].nic.mac1609_4 	SentPackets 	0
scalar MyScenario.node[208].nic.mac1609_4 	SNIRLostPackets 	0
scalar MyScenario.node[208].nic.mac1609_4 	RXTXLostPackets 	0
scalar MyScenario.node[208].nic.mac1609_4 	TotalLostPackets 	0
scalar MyScenario.node[208].nic.mac1609_4 	DroppedPacketsInMac 	0
scalar MyScenario.node[208].nic.mac1609_4 	TooLittleTime 	0
scalar MyScenario.node[208].nic.mac1609_4 	TimesIntoBackoff 	0
scalar MyScenario.node[208].nic.mac1609_4 	SlotsBackoff 	0
scalar MyScenario.node[208].nic.mac1609_4 	NumInternalContention 	0
scalar MyScenario.node[208].nic.mac1609_4 	totalBusyTime 	0
scalar MyScenario.node[208].veinsmobility 	startTime 	1
scalar MyScenario.node[208].veinsmobility 	totalTime 	9
scalar MyScenario.node[208].veinsmobility 	stopTime 	11
scalar MyScenario.node[208].veinsmobility 	minSpeed 	2.0317003518809
scalar MyScenario.node[208].veinsmobility 	maxSpeed 	13.825165637536
scalar MyScenario.node[208].veinsmobility 	totalDistance 	85.563986398351
scalar MyScenario.node[208].veinsmobility 	totalCO2Emission 	38.449672628206
scalar MyScenario.node[124].appl 	generatedWSMs 	0
scalar MyScenario.node[124].appl 	receivedWSMs 	0
scalar MyScenario.node[124].appl 	generatedBSMs 	0
scalar MyScenario.node[124].appl 	receivedBSMs 	0
scalar MyScenario.node[124].appl 	generatedWSAs 	0
scalar MyScenario.node[124].appl 	receivedWSAs 	0
scalar MyScenario.node[124].nic.phy80211p 	busyTime 	0
scalar MyScenario.node[124].nic.mac1609_4 	ReceivedUnicastPackets 	0
scalar MyScenario.node[124].nic.mac1609_4 	ReceivedBroadcasts 	0
scalar MyScenario.node[124].nic.mac1609_4 	SentPackets 	0
scalar MyScenario.node[124].nic.mac1609_4 	SNIRLostPackets 	0
scalar MyScenario.node[124].nic.mac1609_4 	RXTXLostPackets 	0
scalar MyScenario.node[124].nic.mac1609_4 	TotalLostPackets 	0
scalar MyScenario.node[124].nic.mac1609_4 	DroppedPacketsInMac 	0
scalar MyScenario.node[124].nic.mac1609_4 	TooLittleTime 	0
scalar MyScenario.node[124].nic.mac1609_4 	TimesIntoBackoff 	0
scalar MyScenario.node[124].nic.mac1609_4 	SlotsBackoff 	0
scalar MyScenario.node[124].nic.mac1609_4 	NumInternalContention 	0
scalar MyScenario.node[124].nic.mac1609_4 	totalBusyTime 	0
scalar MyScenario.node[124].veinsmobility 	startTime 	1
scalar MyScenario.node[124].veinsmobility 	totalTime 	9
scalar MyScenario.node[124].veinsmobility 	stopTime 	11
scalar MyScenario.node[124].veinsmobility 	minSpeed 	2.4816085994476
scalar MyScenario.node[124].veinsmobility 	maxSpeed 	13.477212014422
scalar MyScenario.node[124].veinsmobility 	totalDistance 	85.261574542336
scalar MyScenario.node[124].veinsmobility 	totalCO2Emission 	37.63334949627
scalar MyScenario.node[88].appl 	generatedWSMs 	0
scalar MyScenario.node[88].appl 	receivedWSMs 	0
scalar MyScenario.node[88].appl 	generatedBSMs 	0
scalar MyScenario.node[88].appl 	receivedBSMs 	0
scalar MyScenario.node[88].appl 	generatedWSAs 	0
scalar MyScenario.node[88].appl 	receivedWSAs 	0
scalar MyScenario.node[88].nic.phy80211p 	busyTime 	0
scalar MyScenario.node[88].nic.mac1609_4 	ReceivedUnicastPackets 	0
scalar MyScenario.node[88].nic.mac1609_4 	ReceivedBroadcasts 	0
scalar MyScenario.node[88].nic.mac1609_4 	SentPackets 	0
scalar MyScenario.node[88].nic.mac1609_4 	SNIRLostPackets 	0
scalar MyScenario.node[88].nic.mac1609_4 	RXTXLostPackets 	0
scalar MyScenario.node[88].nic.mac1609_4 	TotalLostPackets 	0
scalar MyScenario.node[88].nic.mac1609_4 	DroppedPacketsInMac 	0
scalar MyScenario.node[88].nic.mac1609_4 	TooLittleTime 	0
scalar MyScenario.node[88].nic.mac1609_4 	TimesIntoBackoff 	0
scalar MyScenario.node[88].nic.mac1609_4 	SlotsBackoff 	0
scalar MyScenario.node[88].nic.mac1609_4 	NumInternalContention 	0
scalar MyScenario.node[88].nic.mac1609_4 	totalBusyTime 	0
scalar MyScenario.node[88].veinsmobility 	startTime 	1
scalar MyScenario.node[88].veinsmobility 	totalTime 	9
scalar MyScenario.node[88].veinsmobility 	stopTime 	11
scalar MyScenario.node[88].veinsmobility 	minSpeed 	2.3883311506128
scalar MyScenario.node[88].veinsmobility 	maxSpeed 	13.241728037619
scalar MyScenario.node[88].veinsmobility 	totalDistance 	82.796730613266
scalar MyScenario.node[88].veinsmobility 	totalCO2Emission 	36.726250751269
scalar MyScenario.node[169].appl 	generatedWSMs 	1
scalar MyScenario.node[169].appl 	receivedWSMs 	3
scalar MyScenario.node[169].appl 	generatedBSMs 	0
scalar MyScenario.node[169].appl 	receivedBSMs 	0
scalar MyScenario.node[169].appl 	generatedWSAs 	0
scalar MyScenario.node[169].appl 	receivedWSAs 	0
scalar MyScenario.node[169].nic.phy80211p 	busyTime 	0.00031636363636364
scalar MyScenario.node[169].nic.mac1609_4 	ReceivedUnicastPackets 	0
scalar MyScenario.node[169].nic.mac1609_4 	ReceivedBroadcasts 	3
scalar MyScenario.node[169].nic.mac1609_4 	SentPackets 	1
scalar MyScenario.node[169].nic.mac1609_4 	SNIRLostPackets 	12
scalar MyScenario.node[169].nic.mac1609_4 	RXTXLostPackets 	19
scalar MyScenario.node[169].nic.mac1609_4 	TotalLostPackets 	31
scalar MyScenario.node[169].nic.mac1609_4 	DroppedPacketsInMac 	0
scalar MyScenario.node[169].nic.mac1609_4 	TooLittleTime 	0
scalar MyScenario.node[169].nic.mac1609_4 	TimesIntoBackoff 	1
scalar MyScenario.node[169].nic.mac1609_4 	SlotsBackoff 	3
scalar MyScenario.node[169].nic.mac1609_4 	NumInternalContention 	0
scalar MyScenario.node[169].nic.mac1609_4 	totalBusyTime 	0.001625020613
scalar MyScenario.node[169].veinsmobility 	startTime 	1
scalar MyScenario.node[169].veinsmobility 	totalTime 	10
scalar MyScenario.node[169].veinsmobility 	stopTime 	12
scalar MyScenario.node[169].veinsmobility 	minSpeed 	1.3821709267097
scalar MyScenario.node[169].veinsmobility 	maxSpeed 	13.347643545247
scalar MyScenario.node[169].veinsmobility 	totalDistance 	91.778555472855
scalar MyScenario.node[169].veinsmobility 	totalCO2Emission 	39.837396619051
scalar MyScenario.node[171].appl 	generatedWSMs 	0
scalar MyScenario.node[171].appl 	receivedWSMs 	0
scalar MyScenario.node[171].appl 	generatedBSMs 	0
scalar MyScenario.node[171].appl 	receivedBSMs 	0
scalar MyScenario.node[171].appl 	generatedWSAs 	0
scalar MyScenario.node[171].appl 	receivedWSAs 	0
scalar MyScenario.node[171].nic.phy80211p 	busyTime 	0.00059054545454545
scalar MyScenario.node[171].nic.mac1609_4 	ReceivedUnicastPackets 	0
scalar MyScenario.node[171].nic.mac1609_4 	ReceivedBroadcasts 	0
scalar MyScenario.node[171].nic.mac1609_4 	SentPackets 	0
scalar MyScenario.node[171].nic.mac1609_4 	SNIRLostPackets 	28
scalar MyScenario.node[171].nic.mac1609_4 	RXTXLostPackets 	0
scalar MyScenario.node[171].nic.mac1609_4 	TotalLostPackets 	28
scalar MyScenario.node[171].nic.mac1609_4 	DroppedPacketsInMac 	0
scalar MyScenario.node[171].nic.mac1609_4 	TooLittleTime 	0
scalar MyScenario.node[171].nic.mac1609_4 	TimesIntoBackoff 	0
scalar MyScenario.node[171].nic.mac1609_4 	SlotsBackoff 	0
scalar MyScenario.node[171].nic.mac1609_4 	NumInternalContention 	0
scalar MyScenario.node[171].nic.mac1609_4 	totalBusyTime 	0.00116
scalar MyScenario.node[171].veinsmobility 	startTime 	1
scalar MyScenario.node[171].veinsmobility 	totalTime 	10
scalar MyScenario.node[171].veinsmobility 	stopTime 	12
scalar MyScenario.node[171].veinsmobility 	minSpeed 	1.5521501179319
scalar MyScenario.node[171].veinsmobility 	maxSpeed 	13.596413186449
scalar MyScenario.node[171].veinsmobility 	totalDistance 	92.81410383106
scalar MyScenario.node[171].veinsmobility 	totalCO2Emission 	40.738061169495
scalar MyScenario.node[28].appl 	generatedWSMs 	0
scalar MyScenario.node[28].appl 	receivedWSMs 	0
scalar MyScenario.node[28].appl 	generatedBSMs 	0
scalar MyScenario.node[28].appl 	receivedBSMs 	0
scalar MyScenario.node[28].appl 	generatedWSAs 	0
scalar MyScenario.node[28].appl 	receivedWSAs 	0
scalar MyScenario.node[28].nic.phy80211p 	busyTime 	0.000464
scalar MyScenario.node[28].nic.mac1609_4 	ReceivedUnicastPackets 	0
scalar MyScenario.node[28].nic.mac1609_4 	ReceivedBroadcasts 	0
scalar MyScenario.node[28].nic.mac1609_4 	SentPackets 	0
scalar MyScenario.node[28].nic.mac1609_4 	SNIRLostPackets 	22
scalar MyScenario.node[28].nic.mac1609_4 	RXTXLostPackets 	0
scalar MyScenario.node[28].nic.mac1609_4 	TotalLostPackets 	22
scalar MyScenario.node[28].nic.mac1609_4 	DroppedPacketsInMac 	0
scalar MyScenario.node[28].nic.mac1609_4 	TooLittleTime 	0
scalar MyScenario.node[28].nic.mac1609_4 	TimesIntoBackoff 	0
scalar MyScenario.node[28].nic.mac1609_4 	SlotsBackoff 	0
scalar MyScenario.node[28].nic.mac1609_4 	NumInternalContention 	0
scalar MyScenario.node[28].nic.mac1609_4 	totalBusyTime 	0.00023203332
scalar MyScenario.node[28].veinsmobility 	startTime 	1
scalar MyScenario.node[28].veinsmobility 	totalTime 	10
scalar MyScenario.node[28].veinsmobility 	stopTime 	12
scalar MyScenario.node[28].veinsmobility 	minSpeed 	2.4098335271236
scalar MyScenario.node[28].veinsmobility 	maxSpeed 	13.253092561616
scalar MyScenario.node[28].veinsmobility 	totalDistance 	92.870519528635
scalar MyScenario.node[28].veinsmobility 	totalCO2Emission 	37.399358197899
scalar MyScenario.node[215].appl 	generatedWSMs 	1
scalar MyScenario.node[215].appl 	receivedWSMs 	5
scalar MyScenario.node[215].appl 	generatedBSMs 	0
scalar MyScenario.node[215].appl 	receivedBSMs 	0
scalar MyScenario.node[215].appl 	generatedWSAs 	0
scalar MyScenario.node[215].appl 	receivedWSAs 	0
scalar MyScenario.node[215].nic.phy80211p 	busyTime 	0.00063272727272727
scalar MyScenario.node[215].nic.mac1609_4 	ReceivedUnicastPackets 	0
scalar MyScenario.node[215].nic.mac1609_4 	ReceivedBroadcasts 	5
scalar MyScenario.node[215].nic.mac1609_4 	SentPackets 	1
scalar MyScenario.node[215].nic.mac1609_4 	SNIRLostPackets 	25
scalar MyScenario.node[215].nic.mac1609_4 	RXTXLostPackets 	22
scalar MyScenario.node[215].nic.mac1609_4 	TotalLostPackets 	47
scalar MyScenario.node[215].nic.mac1609_4 	DroppedPacketsInMac 	0
scalar MyScenario.node[215].nic.mac1609_4 	TooLittleTime 	0
scalar MyScenario.node[215].nic.mac1609_4 	TimesIntoBackoff 	1
scalar MyScenario.node[215].nic.mac1609_4 	SlotsBackoff 	0
scalar MyScenario.node[215].nic.mac1609_4 	NumInternalContention 	0
scalar MyScenario.node[215].nic.mac1609_4 	totalBusyTime 	0.002089119089
scalar MyScenario.node[215].veinsmobility 	startTime 	1
scalar MyScenario.node[215].veinsmobility 	totalTime 	10
scalar MyScenario.node[215].veinsmobility 	stopTime 	12
scalar MyScenario.node[215].veinsmobility 	minSpeed 	2.1671269662213
scalar MyScenario.node[215].veinsmobility 	maxSpeed 	13.889172935509
scalar MyScenario.node[215].veinsmobility 	totalDistance 	92.989524235716
scalar MyScenario.node[215].veinsmobility 	totalCO2Emission 	40.454972422835
scalar MyScenario.node[342].appl 	generatedWSMs 	0
scalar MyScenario.node[342].appl 	receivedWSMs 	0
scalar MyScenario.node[342].appl 	generatedBSMs 	0
scalar MyScenario.node[342].appl 	receivedBSMs 	0
scalar MyScenario.node[342].appl 	generatedWSAs 	0
scalar MyScenario.node[342].appl 	receivedWSAs 	0
scalar MyScenario.node[342].nic.phy80211p 	busyTime 	2.32e-05
scalar MyScenario.node[342].nic.mac1609_4 	ReceivedUnicastPackets 	0
scalar MyScenario.node[342].nic.mac1609_4 	ReceivedBroadcasts 	0
scalar MyScenario.node[342].nic.mac1609_4 	SentPackets 	0
scalar MyScenario.node[342].nic.mac1609_4 	SNIRLostPackets 	1
scalar MyScenario.node[342].nic.mac1609_4 	RXTXLostPackets 	0
scalar MyScenario.node[342].nic.mac1609_4 	TotalLostPackets 	1
scalar MyScenario.node[342].nic.mac1609_4 	DroppedPacketsInMac 	0
scalar MyScenario.node[342].nic.mac1609_4 	TooLittleTime 	0
scalar MyScenario.node[342].nic.mac1609_4 	TimesIntoBackoff 	0
scalar MyScenario.node[342].nic.mac1609_4 	SlotsBackoff 	0
scalar MyScenario.node[342].nic.mac1609_4 	NumInternalContention 	0
scalar MyScenario.node[342].nic.mac1609_4 	totalBusyTime 	0.000232
scalar MyScenario.node[342].veinsmobility 	startTime 	4
scalar MyScenario.node[342].veinsmobility 	totalTime 	9
scalar MyScenario.node[342].veinsmobility 	stopTime 	14
scalar MyScenario.node[342].veinsmobility 	minSpeed 	2.3712962034857
scalar MyScenario.node[342].veinsmobility 	maxSpeed 	13.879270204995
scalar MyScenario.node[342].veinsmobility 	totalDistance 	83.414223240106
scalar MyScenario.node[342].veinsmobility 	totalCO2Emission 	39.296108004146
scalar MyScenario.node[368].appl 	generatedWSMs 	0
scalar MyScenario.node[368].appl 	receivedWSMs 	0
scalar MyScenario.node[368].appl 	generatedBSMs 	0
scalar MyScenario.node[368].appl 	receivedBSMs 	0
scalar MyScenario.node[368].appl 	generatedWSAs 	0
scalar MyScenario.node[368].appl 	receivedWSAs 	0
scalar MyScenario.node[368].nic.phy80211p 	busyTime 	3.8666666666667e-05
scalar MyScenario.node[368].nic.mac1609_4 	ReceivedUnicastPackets 	0
scalar MyScenario.node[368].nic.mac1609_4 	ReceivedBroadcasts 	0
scalar MyScenario.node[368].nic.mac1609_4 	SentPackets 	0
scalar MyScenario.node[368].nic.mac1609_4 	SNIRLostPackets 	3
scalar MyScenario.node[368].nic.mac1609_4 	RXTXLostPackets 	0
scalar MyScenario.node[368].nic.mac1609_4 	TotalLostPackets 	3
scalar MyScenario.node[368].nic.mac1609_4 	DroppedPacketsInMac 	0
scalar MyScenario.node[368].nic.mac1609_4 	TooLittleTime 	0
scalar MyScenario.node[368].nic.mac1609_4 	TimesIntoBackoff 	0
scalar MyScenario.node[368].nic.mac1609_4 	SlotsBackoff 	0
scalar MyScenario.node[368].nic.mac1609_4 	NumInternalContention 	0
scalar MyScenario.node[368].nic.mac1609_4 	totalBusyTime 	0.000232
scalar MyScenario.node[368].veinsmobility 	startTime 	7
scalar MyScenario.node[368].veinsmobility 	totalTime 	17
scalar MyScenario.node[368].veinsmobility 	stopTime 	25
scalar MyScenario.node[368].veinsmobility 	minSpeed 	1.8889777544886
scalar MyScenario.node[368].veinsmobility 	maxSpeed 	13.7338305966
scalar MyScenario.node[368].veinsmobility 	totalDistance 	183.3572627028
scalar MyScenario.node[368].veinsmobility 	totalCO2Emission 	54.493586401358
scalar MyScenario.node[244].appl 	generatedWSMs 	1
scalar MyScenario.node[244].appl 	receivedWSMs 	6
scalar MyScenario.node[244].appl 	generatedBSMs 	0
scalar MyScenario.node[244].appl 	receivedBSMs 	0
scalar MyScenario.node[244].appl 	generatedWSAs 	0
scalar MyScenario.node[244].appl 	receivedWSAs 	0
scalar MyScenario.node[244].nic.phy80211p 	busyTime 	0.00053824
scalar MyScenario.node[244].nic.mac1609_4 	ReceivedUnicastPackets 	0
scalar MyScenario.node[244].nic.mac1609_4 	ReceivedBroadcasts 	6
scalar MyScenario.node[244].nic.mac1609_4 	SentPackets 	1
scalar MyScenario.node[244].nic.mac1609_4 	SNIRLostPackets 	52
scalar MyScenario.node[244].nic.mac1609_4 	RXTXLostPackets 	20
scalar MyScenario.node[244].nic.mac1609_4 	TotalLostPackets 	72
scalar MyScenario.node[244].nic.mac1609_4 	DroppedPacketsInMac 	0
scalar MyScenario.node[244].nic.mac1609_4 	TooLittleTime 	0
scalar MyScenario.node[244].nic.mac1609_4 	TimesIntoBackoff 	1
scalar MyScenario.node[244].nic.mac1609_4 	SlotsBackoff 	1
scalar MyScenario.node[244].nic.mac1609_4 	NumInternalContention 	0
scalar MyScenario.node[244].nic.mac1609_4 	totalBusyTime 	0.003249053284
scalar MyScenario.node[244].veinsmobility 	startTime 	1
scalar MyScenario.node[244].veinsmobility 	totalTime 	24
scalar MyScenario.node[244].veinsmobility 	stopTime 	26
scalar MyScenario.node[244].veinsmobility 	minSpeed 	0.027695559499718
scalar MyScenario.node[244].veinsmobility 	maxSpeed 	13.602087143366
scalar MyScenario.node[244].veinsmobility 	totalDistance 	181.90332319369
scalar MyScenario.node[244].veinsmobility 	totalCO2Emission 	60.361316974129
scalar MyScenario.node[10].appl 	generatedWSMs 	0
scalar MyScenario.node[10].appl 	receivedWSMs 	0
scalar MyScenario.node[10].appl 	generatedBSMs 	0
scalar MyScenario.node[10].appl 	receivedBSMs 	0
scalar MyScenario.node[10].appl 	generatedWSAs 	0
scalar MyScenario.node[10].appl 	receivedWSAs 	0
scalar MyScenario.node[10].nic.phy80211p 	busyTime 	0.0004176
scalar MyScenario.node[10].nic.mac1609_4 	ReceivedUnicastPackets 	0
scalar MyScenario.node[10].nic.mac1609_4 	ReceivedBroadcasts 	0
scalar MyScenario.node[10].nic.mac1609_4 	SentPackets 	0
scalar MyScenario.node[10].nic.mac1609_4 	SNIRLostPackets 	45
scalar MyScenario.node[10].nic.mac1609_4 	RXTXLostPackets 	0
scalar MyScenario.node[10].nic.mac1609_4 	TotalLostPackets 	45
scalar MyScenario.node[10].nic.mac1609_4 	DroppedPacketsInMac 	0
scalar MyScenario.node[10].nic.mac1609_4 	TooLittleTime 	0
scalar MyScenario.node[10].nic.mac1609_4 	TimesIntoBackoff 	0
scalar MyScenario.node[10].nic.mac1609_4 	SlotsBackoff 	0
scalar MyScenario.node[10].nic.mac1609_4 	NumInternalContention 	0
scalar MyScenario.node[10].nic.mac1609_4 	totalBusyTime 	0.001624
scalar MyScenario.node[10].veinsmobility 	startTime 	1
scalar MyScenario.node[10].veinsmobility 	totalTime 	24
scalar MyScenario.node[10].veinsmobility 	stopTime 	26
scalar MyScenario.node[10].veinsmobility 	minSpeed 	2.3441544236848
scalar MyScenario.node[10].veinsmobility 	maxSpeed 	13.587714683707
scalar MyScenario.node[10].veinsmobility 	totalDistance 	273.96602542992
scalar MyScenario.node[10].veinsmobility 	totalCO2Emission 	68.717362633554
scalar MyScenario.node[126].appl 	generatedWSMs 	0
scalar MyScenario.node[126].appl 	receivedWSMs 	0
scalar MyScenario.node[126].appl 	generatedBSMs 	0
scalar MyScenario.node[126].appl 	receivedBSMs 	0
scalar MyScenario.node[126].appl 	generatedWSAs 	0
scalar MyScenario.node[126].appl 	receivedWSAs 	0
scalar MyScenario.node[126].nic.phy80211p 	busyTime 	2.6769230769231e-05
scalar MyScenario.node[126].nic.mac1609_4 	ReceivedUnicastPackets 	0
scalar MyScenario.node[126].nic.mac1609_4 	ReceivedBroadcasts 	0
scalar MyScenario.node[126].nic.mac1609_4 	SentPackets 	0
scalar MyScenario.node[126].nic.mac1609_4 	SNIRLostPackets 	3
scalar MyScenario.node[126].nic.mac1609_4 	RXTXLostPackets 	0
scalar MyScenario.node[126].nic.mac1609_4 	TotalLostPackets 	3
scalar MyScenario.node[126].nic.mac1609_4 	DroppedPacketsInMac 	0
scalar MyScenario.node[126].nic.mac1609_4 	TooLittleTime 	0
scalar MyScenario.node[126].nic.mac1609_4 	TimesIntoBackoff 	0
scalar MyScenario.node[126].nic.mac1609_4 	SlotsBackoff 	0
scalar MyScenario.node[126].nic.mac1609_4 	NumInternalContention 	0
scalar MyScenario.node[126].nic.mac1609_4 	totalBusyTime 	0.000232
scalar MyScenario.node[126].veinsmobility 	startTime 	1
scalar MyScenario.node[126].veinsmobility 	totalTime 	25
scalar MyScenario.node[126].veinsmobility 	stopTime 	27
scalar MyScenario.node[126].veinsmobility 	minSpeed 	2.5496622440638
scalar MyScenario.node[126].veinsmobility 	maxSpeed 	13.877538168058
scalar MyScenario.node[126].veinsmobility 	totalDistance 	279.09030943505
scalar MyScenario.node[126].veinsmobility 	totalCO2Emission 	88.584238431764
scalar MyScenario.node[158].appl 	generatedWSMs 	0
scalar MyScenario.node[158].appl 	receivedWSMs 	0
scalar MyScenario.node[158].appl 	generatedBSMs 	0
scalar MyScenario.node[158].appl 	receivedBSMs 	0
scalar MyScenario.node[158].appl 	generatedWSAs 	0
scalar MyScenario.node[158].appl 	receivedWSAs 	0
scalar MyScenario.node[158].nic.phy80211p 	busyTime 	0.00021415384615385
scalar MyScenario.node[158].nic.mac1609_4 	ReceivedUnicastPackets 	0
scalar MyScenario.node[158].nic.mac1609_4 	ReceivedBroadcasts 	0
scalar MyScenario.node[158].nic.mac1609_4 	SentPackets 	0
scalar MyScenario.node[158].nic.mac1609_4 	SNIRLostPackets 	24
scalar MyScenario.node[158].nic.mac1609_4 	RXTXLostPackets 	0
scalar MyScenario.node[158].nic.mac1609_4 	TotalLostPackets 	24
scalar MyScenario.node[158].nic.mac1609_4 	DroppedPacketsInMac 	0
scalar MyScenario.node[158].nic.mac1609_4 	TooLittleTime 	0
scalar MyScenario.node[158].nic.mac1609_4 	TimesIntoBackoff 	0
scalar MyScenario.node[158].nic.mac1609_4 	SlotsBackoff 	0
scalar MyScenario.node[158].nic.mac1609_4 	NumInternalContention 	0
scalar MyScenario.node[158].nic.mac1609_4 	totalBusyTime 	0.000928
scalar MyScenario.node[158].veinsmobility 	startTime 	1
scalar MyScenario.node[158].veinsmobility 	totalTime 	25
scalar MyScenario.node[158].veinsmobility 	stopTime 	27
scalar MyScenario.node[158].veinsmobility 	minSpeed 	1.6079932792811
scalar MyScenario.node[158].veinsmobility 	maxSpeed 	13.800649174605
scalar MyScenario.node[158].veinsmobility 	totalDistance 	266.40647958517
scalar MyScenario.node[158].veinsmobility 	totalCO2Emission 	85.947505942075
scalar MyScenario.node[38].appl 	generatedWSMs 	0
scalar MyScenario.node[38].appl 	receivedWSMs 	0
scalar MyScenario.node[38].appl 	generatedBSMs 	0
scalar MyScenario.node[38].appl 	receivedBSMs 	0
scalar MyScenario.node[38].appl 	generatedWSAs 	0
scalar MyScenario.node[38].appl 	receivedWSAs 	0
scalar MyScenario.node[38].nic.phy80211p 	busyTime 	0
scalar MyScenario.node[38].nic.mac1609_4 	ReceivedUnicastPackets 	0
scalar MyScenario.node[38].nic.mac1609_4 	ReceivedBroadcasts 	0
scalar MyScenario.node[38].nic.mac1609_4 	SentPackets 	0
scalar MyScenario.node[38].nic.mac1609_4 	SNIRLostPackets 	0
scalar MyScenario.node[38].nic.mac1609_4 	RXTXLostPackets 	0
scalar MyScenario.node[38].nic.mac1609_4 	TotalLostPackets 	0
scalar MyScenario.node[38].nic.mac1609_4 	DroppedPacketsInMac 	0
scalar MyScenario.node[38].nic.mac1609_4 	TooLittleTime 	0
scalar MyScenario.node[38].nic.mac1609_4 	TimesIntoBackoff 	0
scalar MyScenario.node[38].nic.mac1609_4 	SlotsBackoff 	0
scalar MyScenario.node[38].nic.mac1609_4 	NumInternalContention 	0
scalar MyScenario.node[38].nic.mac1609_4 	totalBusyTime 	0
scalar MyScenario.node[38].veinsmobility 	startTime 	1
scalar MyScenario.node[38].veinsmobility 	totalTime 	25
scalar MyScenario.node[38].veinsmobility 	stopTime 	27
scalar MyScenario.node[38].veinsmobility 	minSpeed 	2.3371600365732
scalar MyScenario.node[38].veinsmobility 	maxSpeed 	13.834735902096
scalar MyScenario.node[38].veinsmobility 	totalDistance 	284.8337720328
scalar MyScenario.node[38].veinsmobility 	totalCO2Emission 	76.911301930913
scalar MyScenario.node[90].appl 	generatedWSMs 	0
scalar MyScenario.node[90].appl 	receivedWSMs 	0
scalar MyScenario.node[90].appl 	generatedBSMs 	0
scalar MyScenario.node[90].appl 	receivedBSMs 	0
scalar MyScenario.node[90].appl 	generatedWSAs 	0
scalar MyScenario.node[90].appl 	receivedWSAs 	0
scalar MyScenario.node[90].nic.phy80211p 	busyTime 	0
scalar MyScenario.node[90].nic.mac1609_4 	ReceivedUnicastPackets 	0
scalar MyScenario.node[90].nic.mac1609_4 	ReceivedBroadcasts 	0
scalar MyScenario.node[90].nic.mac1609_4 	SentPackets 	0
scalar MyScenario.node[90].nic.mac1609_4 	SNIRLostPackets 	0
scalar MyScenario.node[90].nic.mac1609_4 	RXTXLostPackets 	0
scalar MyScenario.node[90].nic.mac1609_4 	TotalLostPackets 	0
scalar MyScenario.node[90].nic.mac1609_4 	DroppedPacketsInMac 	0
scalar MyScenario.node[90].nic.mac1609_4 	TooLittleTime 	0
scalar MyScenario.node[90].nic.mac1609_4 	TimesIntoBackoff 	0
scalar MyScenario.node[90].nic.mac1609_4 	SlotsBackoff 	0
scalar MyScenario.node[90].nic.mac1609_4 	NumInternalContention 	0
scalar MyScenario.node[90].nic.mac1609_4 	totalBusyTime 	0
scalar MyScenario.node[90].veinsmobility 	startTime 	1
scalar MyScenario.node[90].veinsmobility 	totalTime 	26
scalar MyScenario.node[90].veinsmobility 	stopTime 	28
scalar MyScenario.node[90].veinsmobility 	minSpeed 	1.6783177560661
scalar MyScenario.node[90].veinsmobility 	maxSpeed 	13.865799931926
scalar MyScenario.node[90].veinsmobility 	totalDistance 	276.55838768642
scalar MyScenario.node[90].veinsmobility 	totalCO2Emission 	103.37109545567
scalar MyScenario.node[146].appl 	generatedWSMs 	1
scalar MyScenario.node[146].appl 	receivedWSMs 	7
scalar MyScenario.node[146].appl 	generatedBSMs 	0
scalar MyScenario.node[146].appl 	receivedBSMs 	0
scalar MyScenario.node[146].appl 	generatedWSAs 	0
scalar MyScenario.node[146].appl 	receivedWSAs 	0
scalar MyScenario.node[146].nic.phy80211p 	busyTime 	0.00047228571428571
scalar MyScenario.node[146].nic.mac1609_4 	ReceivedUnicastPackets 	0
scalar MyScenario.node[146].nic.mac1609_4 	ReceivedBroadcasts 	7
scalar MyScenario.node[146].nic.mac1609_4 	SentPackets 	1
scalar MyScenario.node[146].nic.mac1609_4 	SNIRLostPackets 	50
scalar MyScenario.node[146].nic.mac1609_4 	RXTXLostPackets 	0
scalar MyScenario.node[146].nic.mac1609_4 	TotalLostPackets 	50
scalar MyScenario.node[146].nic.mac1609_4 	DroppedPacketsInMac 	0
scalar MyScenario.node[146].nic.mac1609_4 	TooLittleTime 	0
scalar MyScenario.node[146].nic.mac1609_4 	TimesIntoBackoff 	1
scalar MyScenario.node[146].nic.mac1609_4 	SlotsBackoff 	2
scalar MyScenario.node[146].nic.mac1609_4 	NumInternalContention 	0
scalar MyScenario.node[146].nic.mac1609_4 	totalBusyTime 	0.003249
scalar MyScenario.node[146].veinsmobility 	startTime 	1
scalar MyScenario.node[146].veinsmobility 	totalTime 	27
scalar MyScenario.node[146].veinsmobility 	stopTime 	29
scalar MyScenario.node[146].veinsmobility 	minSpeed 	0.15323417365829
scalar MyScenario.node[146].veinsmobility 	maxSpeed 	13.590144720022
scalar MyScenario.node[146].veinsmobility 	totalDistance 	181.47978045595
scalar MyScenario.node[146].veinsmobility 	totalCO2Emission 	87.152460936974
scalar MyScenario.node[378].appl 	generatedWSMs 	0
scalar MyScenario.node[378].appl 	receivedWSMs 	0
scalar MyScenario.node[378].appl 	generatedBSMs 	0
scalar MyScenario.node[378].appl 	receivedBSMs 	0
scalar MyScenario.node[378].appl 	generatedWSAs 	0
scalar MyScenario.node[378].appl 	receivedWSAs 	0
scalar MyScenario.node[378].nic.phy80211p 	busyTime 	9.4909090909091e-05
scalar MyScenario.node[378].nic.mac1609_4 	ReceivedUnicastPackets 	0
scalar MyScenario.node[378].nic.mac1609_4 	ReceivedBroadcasts 	0
scalar MyScenario.node[378].nic.mac1609_4 	SentPackets 	0
scalar MyScenario.node[378].nic.mac1609_4 	SNIRLostPackets 	9
scalar MyScenario.node[378].nic.mac1609_4 	RXTXLostPackets 	0
scalar MyScenario.node[378].nic.mac1609_4 	TotalLostPackets 	9
scalar MyScenario.node[378].nic.mac1609_4 	DroppedPacketsInMac 	0
scalar MyScenario.node[378].nic.mac1609_4 	TooLittleTime 	0
scalar MyScenario.node[378].nic.mac1609_4 	TimesIntoBackoff 	0
scalar MyScenario.node[378].nic.mac1609_4 	SlotsBackoff 	0
scalar MyScenario.node[378].nic.mac1609_4 	NumInternalContention 	0
scalar MyScenario.node[378].nic.mac1609_4 	totalBusyTime 	0.000464
scalar MyScenario.node[378].veinsmobility 	startTime 	7
scalar MyScenario.node[378].veinsmobility 	totalTime 	21
scalar MyScenario.node[378].veinsmobility 	stopTime 	29
scalar MyScenario.node[378].veinsmobility 	minSpeed 	1.3199217636371
scalar MyScenario.node[378].veinsmobility 	maxSpeed 	13.471487630438
scalar MyScenario.node[378].veinsmobility 	totalDistance 	170.16119891303
scalar MyScenario.node[378].veinsmobility 	totalCO2Emission 	75.880030728013
scalar MyScenario.node[222].appl 	generatedWSMs 	1
scalar MyScenario.node[222].appl 	receivedWSMs 	7
scalar MyScenario.node[222].appl 	generatedBSMs 	0
scalar MyScenario.node[222].appl 	receivedBSMs 	0
scalar MyScenario.node[222].appl 	generatedWSAs 	0
scalar MyScenario.node[222].appl 	receivedWSAs 	0
scalar MyScenario.node[222].nic.phy80211p 	busyTime 	0.00044742857142857
scalar MyScenario.node[222].nic.mac1609_4 	ReceivedUnicastPackets 	0
scalar MyScenario.node[222].nic.mac1609_4 	ReceivedBroadcasts 	7
scalar MyScenario.node[222].nic.mac1609_4 	SentPackets 	1
scalar MyScenario.node[222].nic.mac1609_4 	SNIRLostPackets 	47
scalar MyScenario.node[222].nic.mac1609_4 	RXTXLostPackets 	1
scalar MyScenario.node[222].nic.mac1609_4 	TotalLostPackets 	48
scalar MyScenario.node[222].nic.mac1609_4 	DroppedPacketsInMac 	0
scalar MyScenario.node[222].nic.mac1609_4 	TooLittleTime 	0
scalar MyScenario.node[222].nic.mac1609_4 	TimesIntoBackoff 	1
scalar MyScenario.node[222].nic.mac1609_4 	SlotsBackoff 	0
scalar MyScenario.node[222].nic.mac1609_4 	NumInternalContention 	0
scalar MyScenario.node[222].nic.mac1609_4 	totalBusyTime 	0.003481
scalar MyScenario.node[222].veinsmobility 	startTime 	1
scalar MyScenario.node[222].veinsmobility 	totalTime 	27
scalar MyScenario.node[222].veinsmobility 	stopTime 	29
scalar MyScenario.node[222].veinsmobility 	minSpeed 	1.6834632854443
scalar MyScenario.node[222].veinsmobility 	maxSpeed 	13.881674547726
scalar MyScenario.node[222].veinsmobility 	totalDistance 	283.33920553464
scalar MyScenario.node[222].veinsmobility 	totalCO2Emission 	100.6800706693
scalar MyScenario.node[263].appl 	generatedWSMs 	1
scalar MyScenario.node[263].appl 	receivedWSMs 	1
scalar MyScenario.node[263].appl 	generatedBSMs 	0
scalar MyScenario.node[263].appl 	receivedBSMs 	0
scalar MyScenario.node[263].appl 	generatedWSAs 	0
scalar MyScenario.node[263].appl 	receivedWSAs 	0
scalar MyScenario.node[263].nic.phy80211p 	busyTime 	6.8740740740741e-05
scalar MyScenario.node[263].nic.mac1609_4 	ReceivedUnicastPackets 	0
scalar MyScenario.node[263].nic.mac1609_4 	ReceivedBroadcasts 	1
scalar MyScenario.node[263].nic.mac1609_4 	SentPackets 	1
scalar MyScenario.node[263].nic.mac1609_4 	SNIRLostPackets 	7
scalar MyScenario.node[263].nic.mac1609_4 	RXTXLostPackets 	19
scalar MyScenario.node[263].nic.mac1609_4 	TotalLostPackets 	26
scalar MyScenario.node[263].nic.mac1609_4 	DroppedPacketsInMac 	0
scalar MyScenario.node[263].nic.mac1609_4 	TooLittleTime 	0
scalar MyScenario.node[263].nic.mac1609_4 	TimesIntoBackoff 	1
scalar MyScenario.node[263].nic.mac1609_4 	SlotsBackoff 	1
scalar MyScenario.node[263].nic.mac1609_4 	NumInternalContention 	0
scalar MyScenario.node[263].nic.mac1609_4 	totalBusyTime 	0.000697220465
scalar MyScenario.node[263].veinsmobility 	startTime 	4
scalar MyScenario.node[263].veinsmobility 	totalTime 	26
scalar MyScenario.node[263].veinsmobility 	stopTime 	31
scalar MyScenario.node[263].veinsmobility 	minSpeed 	1.8187452481827
scalar MyScenario.node[263].veinsmobility 	maxSpeed 	13.806499213097
scalar MyScenario.node[263].veinsmobility 	totalDistance 	284.13584925216
scalar MyScenario.node[263].veinsmobility 	totalCO2Emission 	90.13384733902
scalar MyScenario.node[148].appl 	generatedWSMs 	0
scalar MyScenario.node[148].appl 	receivedWSMs 	0
scalar MyScenario.node[148].appl 	generatedBSMs 	0
scalar MyScenario.node[148].appl 	receivedBSMs 	0
scalar MyScenario.node[148].appl 	generatedWSAs 	0
scalar MyScenario.node[148].appl 	receivedWSAs 	0
scalar MyScenario.node[148].nic.phy80211p 	busyTime 	0
scalar MyScenario.node[148].nic.mac1609_4 	ReceivedUnicastPackets 	0
scalar MyScenario.node[148].nic.mac1609_4 	ReceivedBroadcasts 	0
scalar MyScenario.node[148].nic.mac1609_4 	SentPackets 	0
scalar MyScenario.node[148].nic.mac1609_4 	SNIRLostPackets 	0
scalar MyScenario.node[148].nic.mac1609_4 	RXTXLostPackets 	0
scalar MyScenario.node[148].nic.mac1609_4 	TotalLostPackets 	0
scalar MyScenario.node[148].nic.mac1609_4 	DroppedPacketsInMac 	0
scalar MyScenario.node[148].nic.mac1609_4 	TooLittleTime 	0
scalar MyScenario.node[148].nic.mac1609_4 	TimesIntoBackoff 	0
scalar MyScenario.node[148].nic.mac1609_4 	SlotsBackoff 	0
scalar MyScenario.node[148].nic.mac1609_4 	NumInternalContention 	0
scalar MyScenario.node[148].nic.mac1609_4 	totalBusyTime 	0
scalar MyScenario.node[148].veinsmobility 	startTime 	1
scalar MyScenario.node[148].veinsmobility 	totalTime 	33
scalar MyScenario.node[148].veinsmobility 	stopTime 	35
scalar MyScenario.node[148].veinsmobility 	minSpeed 	2.4093926009955
scalar MyScenario.node[148].veinsmobility 	maxSpeed 	13.851635191147
scalar MyScenario.node[148].veinsmobility 	totalDistance 	364.40095764876
scalar MyScenario.node[148].veinsmobility 	totalCO2Emission 	108.75586293091
scalar MyScenario.node[347].appl 	generatedWSMs 	1
scalar MyScenario.node[347].appl 	receivedWSMs 	1
scalar MyScenario.node[347].appl 	generatedBSMs 	0
scalar MyScenario.node[347].appl 	receivedBSMs 	0
scalar MyScenario.node[347].appl 	generatedWSAs 	0
scalar MyScenario.node[347].appl 	receivedWSAs 	0
scalar MyScenario.node[347].nic.phy80211p 	busyTime 	3.625e-05
scalar MyScenario.node[347].nic.mac1609_4 	ReceivedUnicastPackets 	0
scalar MyScenario.node[347].nic.mac1609_4 	ReceivedBroadcasts 	1
scalar MyScenario.node[347].nic.mac1609_4 	SentPackets 	1
scalar MyScenario.node[347].nic.mac1609_4 	SNIRLostPackets 	4
scalar MyScenario.node[347].nic.mac1609_4 	RXTXLostPackets 	5
scalar MyScenario.node[347].nic.mac1609_4 	TotalLostPackets 	9
scalar MyScenario.node[347].nic.mac1609_4 	DroppedPacketsInMac 	0
scalar MyScenario.node[347].nic.mac1609_4 	TooLittleTime 	0
scalar MyScenario.node[347].nic.mac1609_4 	TimesIntoBackoff 	1
scalar MyScenario.node[347].nic.mac1609_4 	SlotsBackoff 	2
scalar MyScenario.node[347].nic.mac1609_4 	NumInternalContention 	0
scalar MyScenario.node[347].nic.mac1609_4 	totalBusyTime 	0.000929033018
scalar MyScenario.node[347].veinsmobility 	startTime 	4
scalar MyScenario.node[347].veinsmobility 	totalTime 	31
scalar MyScenario.node[347].veinsmobility 	stopTime 	36
scalar MyScenario.node[347].veinsmobility 	minSpeed 	1.7962446553633
scalar MyScenario.node[347].veinsmobility 	maxSpeed 	13.827491292893
scalar MyScenario.node[347].veinsmobility 	totalDistance 	364.51667675042
scalar MyScenario.node[347].veinsmobility 	totalCO2Emission 	85.035407359168
scalar MyScenario.node[62].appl 	generatedWSMs 	0
scalar MyScenario.node[62].appl 	receivedWSMs 	0
scalar MyScenario.node[62].appl 	generatedBSMs 	0
scalar MyScenario.node[62].appl 	receivedBSMs 	0
scalar MyScenario.node[62].appl 	generatedWSAs 	0
scalar MyScenario.node[62].appl 	receivedWSAs 	0
scalar MyScenario.node[62].nic.phy80211p 	busyTime 	1.9885714285714e-05
scalar MyScenario.node[62].nic.mac1609_4 	ReceivedUnicastPackets 	0
scalar MyScenario.node[62].nic.mac1609_4 	ReceivedBroadcasts 	0
scalar MyScenario.node[62].nic.mac1609_4 	SentPackets 	0
scalar MyScenario.node[62].nic.mac1609_4 	SNIRLostPackets 	3
scalar MyScenario.node[62].nic.mac1609_4 	RXTXLostPackets 	0
scalar MyScenario.node[62].nic.mac1609_4 	TotalLostPackets 	3
scalar MyScenario.node[62].nic.mac1609_4 	DroppedPacketsInMac 	0
scalar MyScenario.node[62].nic.mac1609_4 	TooLittleTime 	0
scalar MyScenario.node[62].nic.mac1609_4 	TimesIntoBackoff 	0
scalar MyScenario.node[62].nic.mac1609_4 	SlotsBackoff 	0
scalar MyScenario.node[62].nic.mac1609_4 	NumInternalContention 	0
scalar MyScenario.node[62].nic.mac1609_4 	totalBusyTime 	0.000232
scalar MyScenario.node[62].veinsmobility 	startTime 	1
scalar MyScenario.node[62].veinsmobility 	totalTime 	34
scalar MyScenario.node[62].veinsmobility 	stopTime 	36
scalar MyScenario.node[62].veinsmobility 	minSpeed 	1.3967931132764
scalar MyScenario.node[62].veinsmobility 	maxSpeed 	13.882122958521
scalar MyScenario.node[62].veinsmobility 	totalDistance 	368.43051718728
scalar MyScenario.node[62].veinsmobility 	totalCO2Emission 	109.55176349151
scalar MyScenario.node[172].appl 	generatedWSMs 	1
scalar MyScenario.node[172].appl 	receivedWSMs 	8
scalar MyScenario.node[172].appl 	generatedBSMs 	0
scalar MyScenario.node[172].appl 	receivedBSMs 	0
scalar MyScenario.node[172].appl 	generatedWSAs 	0
scalar MyScenario.node[172].appl 	receivedWSAs 	0
scalar MyScenario.node[172].nic.phy80211p 	busyTime 	0.000232
scalar MyScenario.node[172].nic.mac1609_4 	ReceivedUnicastPackets 	0
scalar MyScenario.node[172].nic.mac1609_4 	ReceivedBroadcasts 	8
scalar MyScenario.node[172].nic.mac1609_4 	SentPackets 	1
scalar MyScenario.node[172].nic.mac1609_4 	SNIRLostPackets 	27
scalar MyScenario.node[172].nic.mac1609_4 	RXTXLostPackets 	20
scalar MyScenario.node[172].nic.mac1609_4 	TotalLostPackets 	47
scalar MyScenario.node[172].nic.mac1609_4 	DroppedPacketsInMac 	0
scalar MyScenario.node[172].nic.mac1609_4 	TooLittleTime 	0
scalar MyScenario.node[172].nic.mac1609_4 	TimesIntoBackoff 	1
scalar MyScenario.node[172].nic.mac1609_4 	SlotsBackoff 	1
scalar MyScenario.node[172].nic.mac1609_4 	NumInternalContention 	0
scalar MyScenario.node[172].nic.mac1609_4 	totalBusyTime 	0.003713079826
scalar MyScenario.node[172].veinsmobility 	startTime 	1
scalar MyScenario.node[172].veinsmobility 	totalTime 	34
scalar MyScenario.node[172].veinsmobility 	stopTime 	36
scalar MyScenario.node[172].veinsmobility 	minSpeed 	1.8981710561318
scalar MyScenario.node[172].veinsmobility 	maxSpeed 	13.844834142597
scalar MyScenario.node[172].veinsmobility 	totalDistance 	369.69188904874
scalar MyScenario.node[172].veinsmobility 	totalCO2Emission 	120.40669220652
scalar MyScenario.node[84].appl 	generatedWSMs 	0
scalar MyScenario.node[84].appl 	receivedWSMs 	0
scalar MyScenario.node[84].appl 	generatedBSMs 	0
scalar MyScenario.node[84].appl 	receivedBSMs 	0
scalar MyScenario.node[84].appl 	generatedWSAs 	0
scalar MyScenario.node[84].appl 	receivedWSAs 	0
scalar MyScenario.node[84].nic.phy80211p 	busyTime 	6.4444444444444e-06
scalar MyScenario.node[84].nic.mac1609_4 	ReceivedUnicastPackets 	0
scalar MyScenario.node[84].nic.mac1609_4 	ReceivedBroadcasts 	0
scalar MyScenario.node[84].nic.mac1609_4 	SentPackets 	0
scalar MyScenario.node[84].nic.mac1609_4 	SNIRLostPackets 	1
scalar MyScenario.node[84].nic.mac1609_4 	RXTXLostPackets 	0
scalar MyScenario.node[84].nic.mac1609_4 	TotalLostPackets 	1
scalar MyScenario.node[84].nic.mac1609_4 	DroppedPacketsInMac 	0
scalar MyScenario.node[84].nic.mac1609_4 	TooLittleTime 	0
scalar MyScenario.node[84].nic.mac1609_4 	TimesIntoBackoff 	0
scalar MyScenario.node[84].nic.mac1609_4 	SlotsBackoff 	0
scalar MyScenario.node[84].nic.mac1609_4 	NumInternalContention 	0
scalar MyScenario.node[84].nic.mac1609_4 	totalBusyTime 	0.000232
scalar MyScenario.node[84].veinsmobility 	startTime 	1
scalar MyScenario.node[84].veinsmobility 	totalTime 	35
scalar MyScenario.node[84].veinsmobility 	stopTime 	37
scalar MyScenario.node[84].veinsmobility 	minSpeed 	1.5435628633481
scalar MyScenario.node[84].veinsmobility 	maxSpeed 	13.849476701324
scalar MyScenario.node[84].veinsmobility 	totalDistance 	368.42571012629
scalar MyScenario.node[84].veinsmobility 	totalCO2Emission 	121.53894148897
scalar MyScenario.node[221].appl 	generatedWSMs 	1
scalar MyScenario.node[221].appl 	receivedWSMs 	1
scalar MyScenario.node[221].appl 	generatedBSMs 	0
scalar MyScenario.node[221].appl 	receivedBSMs 	0
scalar MyScenario.node[221].appl 	generatedWSAs 	0
scalar MyScenario.node[221].appl 	receivedWSAs 	0
scalar MyScenario.node[221].nic.phy80211p 	busyTime 	0.00015048648648649
scalar MyScenario.node[221].nic.mac1609_4 	ReceivedUnicastPackets 	0
scalar MyScenario.node[221].nic.mac1609_4 	ReceivedBroadcasts 	1
scalar MyScenario.node[221].nic.mac1609_4 	SentPackets 	1
scalar MyScenario.node[221].nic.mac1609_4 	SNIRLostPackets 	23
scalar MyScenario.node[221].nic.mac1609_4 	RXTXLostPackets 	21
scalar MyScenario.node[221].nic.mac1609_4 	TotalLostPackets 	44
scalar MyScenario.node[221].nic.mac1609_4 	DroppedPacketsInMac 	0
scalar MyScenario.node[221].nic.mac1609_4 	TooLittleTime 	0
scalar MyScenario.node[221].nic.mac1609_4 	TimesIntoBackoff 	1
scalar MyScenario.node[221].nic.mac1609_4 	SlotsBackoff 	3
scalar MyScenario.node[221].nic.mac1609_4 	NumInternalContention 	0
scalar MyScenario.node[221].nic.mac1609_4 	totalBusyTime 	0.001857217396
scalar MyScenario.node[221].veinsmobility 	startTime 	1
scalar MyScenario.node[221].veinsmobility 	totalTime 	36
scalar MyScenario.node[221].veinsmobility 	stopTime 	38
scalar MyScenario.node[221].veinsmobility 	minSpeed 	0.014426028823913
scalar MyScenario.node[221].veinsmobility 	maxSpeed 	13.879132291349
scalar MyScenario.node[221].veinsmobility 	totalDistance 	273.43403294521
scalar MyScenario.node[221].veinsmobility 	totalCO2Emission 	117.62508972713
scalar MyScenario.node[193].appl 	generatedWSMs 	1
scalar MyScenario.node[193].appl 	receivedWSMs 	2
scalar MyScenario.node[193].appl 	generatedBSMs 	0
scalar MyScenario.node[193].appl 	receivedBSMs 	0
scalar MyScenario.node[193].appl 	generatedWSAs 	0
scalar MyScenario.node[193].appl 	receivedWSAs 	0
scalar MyScenario.node[193].nic.phy80211p 	busyTime 	0.00028084210526316
scalar MyScenario.node[193].nic.mac1609_4 	ReceivedUnicastPackets 	0
scalar MyScenario.node[193].nic.mac1609_4 	ReceivedBroadcasts 	2
scalar MyScenario.node[193].nic.mac1609_4 	SentPackets 	1
scalar MyScenario.node[193].nic.mac1609_4 	SNIRLostPackets 	44
scalar MyScenario.node[193].nic.mac1609_4 	RXTXLostPackets 	19
scalar MyScenario.node[193].nic.mac1609_4 	TotalLostPackets 	63
scalar MyScenario.node[193].nic.mac1609_4 	DroppedPacketsInMac 	0
scalar MyScenario.node[193].nic.mac1609_4 	TooLittleTime 	0
scalar MyScenario.node[193].nic.mac1609_4 	TimesIntoBackoff 	1
scalar MyScenario.node[193].nic.mac1609_4 	SlotsBackoff 	1
scalar MyScenario.node[193].nic.mac1609_4 	NumInternalContention 	0
scalar MyScenario.node[193].nic.mac1609_4 	totalBusyTime 	0.002553283127
scalar MyScenario.node[193].veinsmobility 	startTime 	1
scalar MyScenario.node[193].veinsmobility 	totalTime 	37
scalar MyScenario.node[193].veinsmobility 	stopTime 	39
scalar MyScenario.node[193].veinsmobility 	minSpeed 	0.15863139039161
scalar MyScenario.node[193].veinsmobility 	maxSpeed 	13.827494638111
scalar MyScenario.node[193].veinsmobility 	totalDistance 	376.64129696
scalar MyScenario.node[193].veinsmobility 	totalCO2Emission 	115.22321312023
scalar MyScenario.node[152].appl 	generatedWSMs 	0
scalar MyScenario.node[152].appl 	receivedWSMs 	0
scalar MyScenario.node[152].appl 	generatedBSMs 	0
scalar MyScenario.node[152].appl 	receivedBSMs 	0
scalar MyScenario.node[152].appl 	generatedWSAs 	0
scalar MyScenario.node[152].appl 	receivedWSAs 	0
scalar MyScenario.node[152].nic.phy80211p 	busyTime 	0.00010378947368421
scalar MyScenario.node[152].nic.mac1609_4 	ReceivedUnicastPackets 	0
scalar MyScenario.node[152].nic.mac1609_4 	ReceivedBroadcasts 	0
scalar MyScenario.node[152].nic.mac1609_4 	SentPackets 	0
scalar MyScenario.node[152].nic.mac1609_4 	SNIRLostPackets 	17
scalar MyScenario.node[152].nic.mac1609_4 	RXTXLostPackets 	0
scalar MyScenario.node[152].nic.mac1609_4 	TotalLostPackets 	17
scalar MyScenario.node[152].nic.mac1609_4 	DroppedPacketsInMac 	0
scalar MyScenario.node[152].nic.mac1609_4 	TooLittleTime 	0
scalar MyScenario.node[152].nic.mac1609_4 	TimesIntoBackoff 	0
scalar MyScenario.node[152].nic.mac1609_4 	SlotsBackoff 	0
scalar MyScenario.node[152].nic.mac1609_4 	NumInternalContention 	0
scalar MyScenario.node[152].nic.mac1609_4 	totalBusyTime 	0.000696
scalar MyScenario.node[152].veinsmobility 	startTime 	1
scalar MyScenario.node[152].veinsmobility 	totalTime 	37
scalar MyScenario.node[152].veinsmobility 	stopTime 	39
scalar MyScenario.node[152].veinsmobility 	minSpeed 	0.013128445827956
scalar MyScenario.node[152].veinsmobility 	maxSpeed 	13.886635788367
scalar MyScenario.node[152].veinsmobility 	totalDistance 	369.9459399125
scalar MyScenario.node[152].veinsmobility 	totalCO2Emission 	117.99427187897
scalar MyScenario.node[370].appl 	generatedWSMs 	1
scalar MyScenario.node[370].appl 	receivedWSMs 	3
scalar MyScenario.node[370].appl 	generatedBSMs 	0
scalar MyScenario.node[370].appl 	receivedBSMs 	0
scalar MyScenario.node[370].appl 	generatedWSAs 	0
scalar MyScenario.node[370].appl 	receivedWSAs 	0
scalar MyScenario.node[370].nic.phy80211p 	busyTime 	0.000116
scalar MyScenario.node[370].nic.mac1609_4 	ReceivedUnicastPackets 	0
scalar MyScenario.node[370].nic.mac1609_4 	ReceivedBroadcasts 	3
scalar MyScenario.node[370].nic.mac1609_4 	SentPackets 	1
scalar MyScenario.node[370].nic.mac1609_4 	SNIRLostPackets 	14
scalar MyScenario.node[370].nic.mac1609_4 	RXTXLostPackets 	16
scalar MyScenario.node[370].nic.mac1609_4 	TotalLostPackets 	30
scalar MyScenario.node[370].nic.mac1609_4 	DroppedPacketsInMac 	0
scalar MyScenario.node[370].nic.mac1609_4 	TooLittleTime 	0
scalar MyScenario.node[370].nic.mac1609_4 	TimesIntoBackoff 	1
scalar MyScenario.node[370].nic.mac1609_4 	SlotsBackoff 	1
scalar MyScenario.node[370].nic.mac1609_4 	NumInternalContention 	0
scalar MyScenario.node[370].nic.mac1609_4 	totalBusyTime 	0.001857000422
scalar MyScenario.node[370].veinsmobility 	startTime 	7
scalar MyScenario.node[370].veinsmobility 	totalTime 	33
scalar MyScenario.node[370].veinsmobility 	stopTime 	41
scalar MyScenario.node[370].veinsmobility 	minSpeed 	2.4933206795016
scalar MyScenario.node[370].veinsmobility 	maxSpeed 	13.768418801622
scalar MyScenario.node[370].veinsmobility 	totalDistance 	367.20816094417
scalar MyScenario.node[370].veinsmobility 	totalCO2Emission 	108.58385249484
scalar MyScenario.node[227].appl 	generatedWSMs 	1
scalar MyScenario.node[227].appl 	receivedWSMs 	2
scalar MyScenario.node[227].appl 	generatedBSMs 	0
scalar MyScenario.node[227].appl 	receivedBSMs 	0
scalar MyScenario.node[227].appl 	generatedWSAs 	0
scalar MyScenario.node[227].appl 	receivedWSAs 	0
scalar MyScenario.node[227].nic.phy80211p 	busyTime 	0.0002494
scalar MyScenario.node[227].nic.mac1609_4 	ReceivedUnicastPackets 	0
scalar MyScenario.node[227].nic.mac1609_4 	ReceivedBroadcasts 	2
scalar MyScenario.node[227].nic.mac1609_4 	SentPackets 	1
scalar MyScenario.node[227].nic.mac1609_4 	SNIRLostPackets 	41
scalar MyScenario.node[227].nic.mac1609_4 	RXTXLostPackets 	12
scalar MyScenario.node[227].nic.mac1609_4 	TotalLostPackets 	53
scalar MyScenario.node[227].nic.mac1609_4 	DroppedPacketsInMac 	0
scalar MyScenario.node[227].nic.mac1609_4 	TooLittleTime 	0
scalar MyScenario.node[227].nic.mac1609_4 	TimesIntoBackoff 	1
scalar MyScenario.node[227].nic.mac1609_4 	SlotsBackoff 	1
scalar MyScenario.node[227].nic.mac1609_4 	NumInternalContention 	0
scalar MyScenario.node[227].nic.mac1609_4 	totalBusyTime 	0.002089112408
scalar MyScenario.node[227].veinsmobility 	startTime 	1
scalar MyScenario.node[227].veinsmobility 	totalTime 	39
scalar MyScenario.node[227].veinsmobility 	stopTime 	41
scalar MyScenario.node[227].veinsmobility 	minSpeed 	0.00066680234806777
scalar MyScenario.node[227].veinsmobility 	maxSpeed 	13.75675529018
scalar MyScenario.node[227].veinsmobility 	totalDistance 	373.16146084489
scalar MyScenario.node[227].veinsmobility 	totalCO2Emission 	115.47433180809
scalar MyScenario.node[157].appl 	generatedWSMs 	0
scalar MyScenario.node[157].appl 	receivedWSMs 	0
scalar MyScenario.node[157].appl 	generatedBSMs 	0
scalar MyScenario.node[157].appl 	receivedBSMs 	0
scalar MyScenario.node[157].appl 	generatedWSAs 	0
scalar MyScenario.node[157].appl 	receivedWSAs 	0
scalar MyScenario.node[157].nic.phy80211p 	busyTime 	7.3560975609756e-05
scalar MyScenario.node[157].nic.mac1609_4 	ReceivedUnicastPackets 	0
scalar MyScenario.node[157].nic.mac1609_4 	ReceivedBroadcasts 	0
scalar MyScenario.node[157].nic.mac1609_4 	SentPackets 	0
scalar MyScenario.node[157].nic.mac1609_4 	SNIRLostPackets 	13
scalar MyScenario.node[157].nic.mac1609_4 	RXTXLostPackets 	0
scalar MyScenario.node[157].nic.mac1609_4 	TotalLostPackets 	13
scalar MyScenario.node[157].nic.mac1609_4 	DroppedPacketsInMac 	0
scalar MyScenario.node[157].nic.mac1609_4 	TooLittleTime 	0
scalar MyScenario.node[157].nic.mac1609_4 	TimesIntoBackoff 	0
scalar MyScenario.node[157].nic.mac1609_4 	SlotsBackoff 	0
scalar MyScenario.node[157].nic.mac1609_4 	NumInternalContention 	0
scalar MyScenario.node[157].nic.mac1609_4 	totalBusyTime 	0.000464
scalar MyScenario.node[157].veinsmobility 	startTime 	1
scalar MyScenario.node[157].veinsmobility 	totalTime 	40
scalar MyScenario.node[157].veinsmobility 	stopTime 	42
scalar MyScenario.node[157].veinsmobility 	minSpeed 	2.1263845125213
scalar MyScenario.node[157].veinsmobility 	maxSpeed 	13.807458736328
scalar MyScenario.node[157].veinsmobility 	totalDistance 	476.02262463831
scalar MyScenario.node[157].veinsmobility 	totalCO2Emission 	119.51260999607
scalar MyScenario.node[39].appl 	generatedWSMs 	1
scalar MyScenario.node[39].appl 	receivedWSMs 	1
scalar MyScenario.node[39].appl 	generatedBSMs 	0
scalar MyScenario.node[39].appl 	receivedBSMs 	0
scalar MyScenario.node[39].appl 	generatedWSAs 	0
scalar MyScenario.node[39].appl 	receivedWSAs 	0
scalar MyScenario.node[39].nic.phy80211p 	busyTime 	0.00010185365853659
scalar MyScenario.node[39].nic.mac1609_4 	ReceivedUnicastPackets 	0
scalar MyScenario.node[39].nic.mac1609_4 	ReceivedBroadcasts 	1
scalar MyScenario.node[39].nic.mac1609_4 	SentPackets 	1
scalar MyScenario.node[39].nic.mac1609_4 	SNIRLostPackets 	17
scalar MyScenario.node[39].nic.mac1609_4 	RXTXLostPackets 	5
scalar MyScenario.node[39].nic.mac1609_4 	TotalLostPackets 	22
scalar MyScenario.node[39].nic.mac1609_4 	DroppedPacketsInMac 	0
scalar MyScenario.node[39].nic.mac1609_4 	TooLittleTime 	0
scalar MyScenario.node[39].nic.mac1609_4 	TimesIntoBackoff 	1
scalar MyScenario.node[39].nic.mac1609_4 	SlotsBackoff 	3
scalar MyScenario.node[39].nic.mac1609_4 	NumInternalContention 	0
scalar MyScenario.node[39].nic.mac1609_4 	totalBusyTime 	0.001625
scalar MyScenario.node[39].veinsmobility 	startTime 	1
scalar MyScenario.node[39].veinsmobility 	totalTime 	40
scalar MyScenario.node[39].veinsmobility 	stopTime 	42
scalar MyScenario.node[39].veinsmobility 	minSpeed 	0.0039085353469961
scalar MyScenario.node[39].veinsmobility 	maxSpeed 	13.874228238733
scalar MyScenario.node[39].veinsmobility 	totalDistance 	369.42817164298
scalar MyScenario.node[39].veinsmobility 	totalCO2Emission 	112.59451066029
scalar MyScenario.node[14].appl 	generatedWSMs 	1
scalar MyScenario.node[14].appl 	receivedWSMs 	2
scalar MyScenario.node[14].appl 	generatedBSMs 	0
scalar MyScenario.node[14].appl 	receivedBSMs 	0
scalar MyScenario.node[14].appl 	generatedWSAs 	0
scalar MyScenario.node[14].appl 	receivedWSAs 	0
scalar MyScenario.node[14].nic.phy80211p 	busyTime 	0.00018673170731707
scalar MyScenario.node[14].nic.mac1609_4 	ReceivedUnicastPackets 	0
scalar MyScenario.node[14].nic.mac1609_4 	ReceivedBroadcasts 	2
scalar MyScenario.node[14].nic.mac1609_4 	SentPackets 	1
scalar MyScenario.node[14].nic.mac1609_4 	SNIRLostPackets 	31
scalar MyScenario.node[14].nic.mac1609_4 	RXTXLostPackets 	12
scalar MyScenario.node[14].nic.mac1609_4 	TotalLostPackets 	43
scalar MyScenario.node[14].nic.mac1609_4 	DroppedPacketsInMac 	0
scalar MyScenario.node[14].nic.mac1609_4 	TooLittleTime 	0
scalar MyScenario.node[14].nic.mac1609_4 	TimesIntoBackoff 	1
scalar MyScenario.node[14].nic.mac1609_4 	SlotsBackoff 	0
scalar MyScenario.node[14].nic.mac1609_4 	NumInternalContention 	0
scalar MyScenario.node[14].nic.mac1609_4 	totalBusyTime 	0.002089160012
scalar MyScenario.node[14].veinsmobility 	startTime 	1
scalar MyScenario.node[14].veinsmobility 	totalTime 	40
scalar MyScenario.node[14].veinsmobility 	stopTime 	42
scalar MyScenario.node[14].veinsmobility 	minSpeed 	4.7500833261058e-05
scalar MyScenario.node[14].veinsmobility 	maxSpeed 	13.889772313321
scalar MyScenario.node[14].veinsmobility 	totalDistance 	373.25405980806
scalar MyScenario.node[14].veinsmobility 	totalCO2Emission 	138.19044204645
scalar MyScenario.node[145].appl 	generatedWSMs 	0
scalar MyScenario.node[145].appl 	receivedWSMs 	0
scalar MyScenario.node[145].appl 	generatedBSMs 	0
scalar MyScenario.node[145].appl 	receivedBSMs 	0
scalar MyScenario.node[145].appl 	generatedWSAs 	0
scalar MyScenario.node[145].appl 	receivedWSAs 	0
scalar MyScenario.node[145].nic.phy80211p 	busyTime 	0
scalar MyScenario.node[145].nic.mac1609_4 	ReceivedUnicastPackets 	0
scalar MyScenario.node[145].nic.mac1609_4 	ReceivedBroadcasts 	0
scalar MyScenario.node[145].nic.mac1609_4 	SentPackets 	0
scalar MyScenario.node[145].nic.mac1609_4 	SNIRLostPackets 	0
scalar MyScenario.node[145].nic.mac1609_4 	RXTXLostPackets 	0
scalar MyScenario.node[145].nic.mac1609_4 	TotalLostPackets 	0
scalar MyScenario.node[145].nic.mac1609_4 	DroppedPacketsInMac 	0
scalar MyScenario.node[145].nic.mac1609_4 	TooLittleTime 	0
scalar MyScenario.node[145].nic.mac1609_4 	TimesIntoBackoff 	0
scalar MyScenario.node[145].nic.mac1609_4 	SlotsBackoff 	0
scalar MyScenario.node[145].nic.mac1609_4 	NumInternalContention 	0
scalar MyScenario.node[145].nic.mac1609_4 	totalBusyTime 	0
scalar MyScenario.node[145].veinsmobility 	startTime 	1
scalar MyScenario.node[145].veinsmobility 	totalTime 	40
scalar MyScenario.node[145].veinsmobility 	stopTime 	42
scalar MyScenario.node[145].veinsmobility 	minSpeed 	2.4855722808978
scalar MyScenario.node[145].veinsmobility 	maxSpeed 	13.881241078116
scalar MyScenario.node[145].veinsmobility 	totalDistance 	474.81986354348
scalar MyScenario.node[145].veinsmobility 	totalCO2Emission 	121.58910032161
scalar MyScenario.node[207].appl 	generatedWSMs 	1
scalar MyScenario.node[207].appl 	receivedWSMs 	4
scalar MyScenario.node[207].appl 	generatedBSMs 	0
scalar MyScenario.node[207].appl 	receivedBSMs 	0
scalar MyScenario.node[207].appl 	generatedWSAs 	0
scalar MyScenario.node[207].appl 	receivedWSAs 	0
scalar MyScenario.node[207].nic.phy80211p 	busyTime 	0.00014712195121951
scalar MyScenario.node[207].nic.mac1609_4 	ReceivedUnicastPackets 	0
scalar MyScenario.node[207].nic.mac1609_4 	ReceivedBroadcasts 	4
scalar MyScenario.node[207].nic.mac1609_4 	SentPackets 	1
scalar MyScenario.node[207].nic.mac1609_4 	SNIRLostPackets 	22
scalar MyScenario.node[207].nic.mac1609_4 	RXTXLostPackets 	25
scalar MyScenario.node[207].nic.mac1609_4 	TotalLostPackets 	47
scalar MyScenario.node[207].nic.mac1609_4 	DroppedPacketsInMac 	0
scalar MyScenario.node[207].nic.mac1609_4 	TooLittleTime 	0
scalar MyScenario.node[207].nic.mac1609_4 	TimesIntoBackoff 	1
scalar MyScenario.node[207].nic.mac1609_4 	SlotsBackoff 	0
scalar MyScenario.node[207].nic.mac1609_4 	NumInternalContention 	0
scalar MyScenario.node[207].nic.mac1609_4 	totalBusyTime 	0.002553288192
scalar MyScenario.node[207].veinsmobility 	startTime 	1
scalar MyScenario.node[207].veinsmobility 	totalTime 	40
scalar MyScenario.node[207].veinsmobility 	stopTime 	42
scalar MyScenario.node[207].veinsmobility 	minSpeed 	0.00017357658425187
scalar MyScenario.node[207].veinsmobility 	maxSpeed 	13.794921840401
scalar MyScenario.node[207].veinsmobility 	totalDistance 	371.20361235101
scalar MyScenario.node[207].veinsmobility 	totalCO2Emission 	117.52957076267
scalar MyScenario.node[15].appl 	generatedWSMs 	1
scalar MyScenario.node[15].appl 	receivedWSMs 	7
scalar MyScenario.node[15].appl 	generatedBSMs 	0
scalar MyScenario.node[15].appl 	receivedBSMs 	0
scalar MyScenario.node[15].appl 	generatedWSAs 	0
scalar MyScenario.node[15].appl 	receivedWSAs 	0
scalar MyScenario.node[15].nic.phy80211p 	busyTime 	0.00016975609756098
scalar MyScenario.node[15].nic.mac1609_4 	ReceivedUnicastPackets 	0
scalar MyScenario.node[15].nic.mac1609_4 	ReceivedBroadcasts 	7
scalar MyScenario.node[15].nic.mac1609_4 	SentPackets 	1
scalar MyScenario.node[15].nic.mac1609_4 	SNIRLostPackets 	23
scalar MyScenario.node[15].nic.mac1609_4 	RXTXLostPackets 	10
scalar MyScenario.node[15].nic.mac1609_4 	TotalLostPackets 	33
scalar MyScenario.node[15].nic.mac1609_4 	DroppedPacketsInMac 	0
scalar MyScenario.node[15].nic.mac1609_4 	TooLittleTime 	0
scalar MyScenario.node[15].nic.mac1609_4 	TimesIntoBackoff 	1
scalar MyScenario.node[15].nic.mac1609_4 	SlotsBackoff 	3
scalar MyScenario.node[15].nic.mac1609_4 	NumInternalContention 	0
scalar MyScenario.node[15].nic.mac1609_4 	totalBusyTime 	0.003249
scalar MyScenario.node[15].veinsmobility 	startTime 	1
scalar MyScenario.node[15].veinsmobility 	totalTime 	40
scalar MyScenario.node[15].veinsmobility 	stopTime 	42
scalar MyScenario.node[15].veinsmobility 	minSpeed 	1.8252635217272
scalar MyScenario.node[15].veinsmobility 	maxSpeed 	13.888019743492
scalar MyScenario.node[15].veinsmobility 	totalDistance 	471.96145340494
scalar MyScenario.node[15].veinsmobility 	totalCO2Emission 	128.8164563906
scalar MyScenario.node[225].appl 	generatedWSMs 	0
scalar MyScenario.node[225].appl 	receivedWSMs 	0
scalar MyScenario.node[225].appl 	generatedBSMs 	0
scalar MyScenario.node[225].appl 	receivedBSMs 	0
scalar MyScenario.node[225].appl 	generatedWSAs 	0
scalar MyScenario.node[225].appl 	receivedWSAs 	0
scalar MyScenario.node[225].nic.phy80211p 	busyTime 	5.9348837209302e-05
scalar MyScenario.node[225].nic.mac1609_4 	ReceivedUnicastPackets 	0
scalar MyScenario.node[225].nic.mac1609_4 	ReceivedBroadcasts 	0
scalar MyScenario.node[225].nic.mac1609_4 	SentPackets 	0
scalar MyScenario.node[225].nic.mac1609_4 	SNIRLostPackets 	11
scalar MyScenario.node[225].nic.mac1609_4 	RXTXLostPackets 	0
scalar MyScenario.node[225].nic.mac1609_4 	TotalLostPackets 	11
scalar MyScenario.node[225].nic.mac1609_4 	DroppedPacketsInMac 	0
scalar MyScenario.node[225].nic.mac1609_4 	TooLittleTime 	0
scalar MyScenario.node[225].nic.mac1609_4 	TimesIntoBackoff 	0
scalar MyScenario.node[225].nic.mac1609_4 	SlotsBackoff 	0
scalar MyScenario.node[225].nic.mac1609_4 	NumInternalContention 	0
scalar MyScenario.node[225].nic.mac1609_4 	totalBusyTime 	0.000464
scalar MyScenario.node[225].veinsmobility 	startTime 	1
scalar MyScenario.node[225].veinsmobility 	totalTime 	42
scalar MyScenario.node[225].veinsmobility 	stopTime 	44
scalar MyScenario.node[225].veinsmobility 	minSpeed 	2.0238760302775
scalar MyScenario.node[225].veinsmobility 	maxSpeed 	13.876714418223
scalar MyScenario.node[225].veinsmobility 	totalDistance 	466.47260866783
scalar MyScenario.node[225].veinsmobility 	totalCO2Emission 	136.7279601648
scalar MyScenario.node[236].appl 	generatedWSMs 	0
scalar MyScenario.node[236].appl 	receivedWSMs 	0
scalar MyScenario.node[236].appl 	generatedBSMs 	0
scalar MyScenario.node[236].appl 	receivedBSMs 	0
scalar MyScenario.node[236].appl 	generatedWSAs 	0
scalar MyScenario.node[236].appl 	receivedWSAs 	0
scalar MyScenario.node[236].nic.phy80211p 	busyTime 	0
scalar MyScenario.node[236].nic.mac1609_4 	ReceivedUnicastPackets 	0
scalar MyScenario.node[236].nic.mac1609_4 	ReceivedBroadcasts 	0
scalar MyScenario.node[236].nic.mac1609_4 	SentPackets 	0
scalar MyScenario.node[236].nic.mac1609_4 	SNIRLostPackets 	0
scalar MyScenario.node[236].nic.mac1609_4 	RXTXLostPackets 	0
scalar MyScenario.node[236].nic.mac1609_4 	TotalLostPackets 	0
scalar MyScenario.node[236].nic.mac1609_4 	DroppedPacketsInMac 	0
scalar MyScenario.node[236].nic.mac1609_4 	TooLittleTime 	0
scalar MyScenario.node[236].nic.mac1609_4 	TimesIntoBackoff 	0
scalar MyScenario.node[236].nic.mac1609_4 	SlotsBackoff 	0
scalar MyScenario.node[236].nic.mac1609_4 	NumInternalContention 	0
scalar MyScenario.node[236].nic.mac1609_4 	totalBusyTime 	0
scalar MyScenario.node[236].veinsmobility 	startTime 	1
scalar MyScenario.node[236].veinsmobility 	totalTime 	42
scalar MyScenario.node[236].veinsmobility 	stopTime 	44
scalar MyScenario.node[236].veinsmobility 	minSpeed 	1.8061778917676
scalar MyScenario.node[236].veinsmobility 	maxSpeed 	13.892700091796
scalar MyScenario.node[236].veinsmobility 	totalDistance 	481.44956697099
scalar MyScenario.node[236].veinsmobility 	totalCO2Emission 	138.2194005177
scalar MyScenario.node[343].appl 	generatedWSMs 	1
scalar MyScenario.node[343].appl 	receivedWSMs 	1
scalar MyScenario.node[343].appl 	generatedBSMs 	0
scalar MyScenario.node[343].appl 	receivedBSMs 	0
scalar MyScenario.node[343].appl 	generatedWSAs 	0
scalar MyScenario.node[343].appl 	receivedWSAs 	0
scalar MyScenario.node[343].nic.phy80211p 	busyTime 	2.2634146341463e-05
scalar MyScenario.node[343].nic.mac1609_4 	ReceivedUnicastPackets 	0
scalar MyScenario.node[343].nic.mac1609_4 	ReceivedBroadcasts 	1
scalar MyScenario.node[343].nic.mac1609_4 	SentPackets 	1
scalar MyScenario.node[343].nic.mac1609_4 	SNIRLostPackets 	3
scalar MyScenario.node[343].nic.mac1609_4 	RXTXLostPackets 	12
scalar MyScenario.node[343].nic.mac1609_4 	TotalLostPackets 	15
scalar MyScenario.node[343].nic.mac1609_4 	DroppedPacketsInMac 	0
scalar MyScenario.node[343].nic.mac1609_4 	TooLittleTime 	0
scalar MyScenario.node[343].nic.mac1609_4 	TimesIntoBackoff 	1
scalar MyScenario.node[343].nic.mac1609_4 	SlotsBackoff 	3
scalar MyScenario.node[343].nic.mac1609_4 	NumInternalContention 	0
scalar MyScenario.node[343].nic.mac1609_4 	totalBusyTime 	0.000697018231
scalar MyScenario.node[343].veinsmobility 	startTime 	4
scalar MyScenario.node[343].veinsmobility 	totalTime 	40
scalar MyScenario.node[343].veinsmobility 	stopTime 	45
scalar MyScenario.node[343].veinsmobility 	minSpeed 	2.1810761944158
scalar MyScenario.node[343].veinsmobility 	maxSpeed 	13.897633089987
scalar MyScenario.node[343].veinsmobility 	totalDistance 	483.00958718386
scalar MyScenario.node[343].veinsmobility 	totalCO2Emission 	112.11983639255
scalar MyScenario.node[93].appl 	generatedWSMs 	1
scalar MyScenario.node[93].appl 	receivedWSMs 	16
scalar MyScenario.node[93].appl 	generatedBSMs 	0
scalar MyScenario.node[93].appl 	receivedBSMs 	0
scalar MyScenario.node[93].appl 	generatedWSAs 	0
scalar MyScenario.node[93].appl 	receivedWSAs 	0
scalar MyScenario.node[93].nic.phy80211p 	busyTime 	0.00031636363636364
scalar MyScenario.node[93].nic.mac1609_4 	ReceivedUnicastPackets 	0
scalar MyScenario.node[93].nic.mac1609_4 	ReceivedBroadcasts 	16
scalar MyScenario.node[93].nic.mac1609_4 	SentPackets 	1
scalar MyScenario.node[93].nic.mac1609_4 	SNIRLostPackets 	44
scalar MyScenario.node[93].nic.mac1609_4 	RXTXLostPackets 	14
scalar MyScenario.node[93].nic.mac1609_4 	TotalLostPackets 	58
scalar MyScenario.node[93].nic.mac1609_4 	DroppedPacketsInMac 	0
scalar MyScenario.node[93].nic.mac1609_4 	TooLittleTime 	0
scalar MyScenario.node[93].nic.mac1609_4 	TimesIntoBackoff 	1
scalar MyScenario.node[93].nic.mac1609_4 	SlotsBackoff 	1
scalar MyScenario.node[93].nic.mac1609_4 	NumInternalContention 	0
scalar MyScenario.node[93].nic.mac1609_4 	totalBusyTime 	0.006265132239
scalar MyScenario.node[93].veinsmobility 	startTime 	1
scalar MyScenario.node[93].veinsmobility 	totalTime 	43
scalar MyScenario.node[93].veinsmobility 	stopTime 	45
scalar MyScenario.node[93].veinsmobility 	minSpeed 	1.516659704526
scalar MyScenario.node[93].veinsmobility 	maxSpeed 	13.882008545543
scalar MyScenario.node[93].veinsmobility 	totalDistance 	475.17656832023
scalar MyScenario.node[93].veinsmobility 	totalCO2Emission 	134.93317934144
scalar MyScenario.node[290].appl 	generatedWSMs 	0
scalar MyScenario.node[290].appl 	receivedWSMs 	0
scalar MyScenario.node[290].appl 	generatedBSMs 	0
scalar MyScenario.node[290].appl 	receivedBSMs 	0
scalar MyScenario.node[290].appl 	generatedWSAs 	0
scalar MyScenario.node[290].appl 	receivedWSAs 	0
scalar MyScenario.node[290].nic.phy80211p 	busyTime 	0
scalar MyScenario.node[290].nic.mac1609_4 	ReceivedUnicastPackets 	0
scalar MyScenario.node[290].nic.mac1609_4 	ReceivedBroadcasts 	0
scalar MyScenario.node[290].nic.mac1609_4 	SentPackets 	0
scalar MyScenario.node[290].nic.mac1609_4 	SNIRLostPackets 	0
scalar MyScenario.node[290].nic.mac1609_4 	RXTXLostPackets 	0
scalar MyScenario.node[290].nic.mac1609_4 	TotalLostPackets 	0
scalar MyScenario.node[290].nic.mac1609_4 	DroppedPacketsInMac 	0
scalar MyScenario.node[290].nic.mac1609_4 	TooLittleTime 	0
scalar MyScenario.node[290].nic.mac1609_4 	TimesIntoBackoff 	0
scalar MyScenario.node[290].nic.mac1609_4 	SlotsBackoff 	0
scalar MyScenario.node[290].nic.mac1609_4 	NumInternalContention 	0
scalar MyScenario.node[290].nic.mac1609_4 	totalBusyTime 	0
scalar MyScenario.node[290].veinsmobility 	startTime 	4
scalar MyScenario.node[290].veinsmobility 	totalTime 	41
scalar MyScenario.node[290].veinsmobility 	stopTime 	46
scalar MyScenario.node[290].veinsmobility 	minSpeed 	4.7145692564371e-05
scalar MyScenario.node[290].veinsmobility 	maxSpeed 	13.856099506561
scalar MyScenario.node[290].veinsmobility 	totalDistance 	276.79894944915
scalar MyScenario.node[290].veinsmobility 	totalCO2Emission 	129.21594265672
scalar MyScenario.node[316].appl 	generatedWSMs 	1
scalar MyScenario.node[316].appl 	receivedWSMs 	5
scalar MyScenario.node[316].appl 	generatedBSMs 	0
scalar MyScenario.node[316].appl 	receivedBSMs 	0
scalar MyScenario.node[316].appl 	generatedWSAs 	0
scalar MyScenario.node[316].appl 	receivedWSAs 	0
scalar MyScenario.node[316].nic.phy80211p 	busyTime 	0.00016571428571429
scalar MyScenario.node[316].nic.mac1609_4 	ReceivedUnicastPackets 	0
scalar MyScenario.node[316].nic.mac1609_4 	ReceivedBroadcasts 	5
scalar MyScenario.node[316].nic.mac1609_4 	SentPackets 	1
scalar MyScenario.node[316].nic.mac1609_4 	SNIRLostPackets 	25
scalar MyScenario.node[316].nic.mac1609_4 	RXTXLostPackets 	2
scalar MyScenario.node[316].nic.mac1609_4 	TotalLostPackets 	27
scalar MyScenario.node[316].nic.mac1609_4 	DroppedPacketsInMac 	0
scalar MyScenario.node[316].nic.mac1609_4 	TooLittleTime 	0
scalar MyScenario.node[316].nic.mac1609_4 	TimesIntoBackoff 	1
scalar MyScenario.node[316].nic.mac1609_4 	SlotsBackoff 	3
scalar MyScenario.node[316].nic.mac1609_4 	NumInternalContention 	0
scalar MyScenario.node[316].nic.mac1609_4 	totalBusyTime 	0.003017
scalar MyScenario.node[316].veinsmobility 	startTime 	4
scalar MyScenario.node[316].veinsmobility 	totalTime 	41
scalar MyScenario.node[316].veinsmobility 	stopTime 	46
scalar MyScenario.node[316].veinsmobility 	minSpeed 	1.3731214376399
scalar MyScenario.node[316].veinsmobility 	maxSpeed 	13.833551817364
scalar MyScenario.node[316].veinsmobility 	totalDistance 	475.55655618374
scalar MyScenario.node[316].veinsmobility 	totalCO2Emission 	113.41654570498
scalar MyScenario.node[116].appl 	generatedWSMs 	0
scalar MyScenario.node[116].appl 	receivedWSMs 	0
scalar MyScenario.node[116].appl 	generatedBSMs 	0
scalar MyScenario.node[116].appl 	receivedBSMs 	0
scalar MyScenario.node[116].appl 	generatedWSAs 	0
scalar MyScenario.node[116].appl 	receivedWSAs 	0
scalar MyScenario.node[116].nic.phy80211p 	busyTime 	3.6088888888889e-05
scalar MyScenario.node[116].nic.mac1609_4 	ReceivedUnicastPackets 	0
scalar MyScenario.node[116].nic.mac1609_4 	ReceivedBroadcasts 	0
scalar MyScenario.node[116].nic.mac1609_4 	SentPackets 	0
scalar MyScenario.node[116].nic.mac1609_4 	SNIRLostPackets 	7
scalar MyScenario.node[116].nic.mac1609_4 	RXTXLostPackets 	0
scalar MyScenario.node[116].nic.mac1609_4 	TotalLostPackets 	7
scalar MyScenario.node[116].nic.mac1609_4 	DroppedPacketsInMac 	0
scalar MyScenario.node[116].nic.mac1609_4 	TooLittleTime 	0
scalar MyScenario.node[116].nic.mac1609_4 	TimesIntoBackoff 	0
scalar MyScenario.node[116].nic.mac1609_4 	SlotsBackoff 	0
scalar MyScenario.node[116].nic.mac1609_4 	NumInternalContention 	0
scalar MyScenario.node[116].nic.mac1609_4 	totalBusyTime 	0.000464
scalar MyScenario.node[116].veinsmobility 	startTime 	1
scalar MyScenario.node[116].veinsmobility 	totalTime 	44
scalar MyScenario.node[116].veinsmobility 	stopTime 	46
scalar MyScenario.node[116].veinsmobility 	minSpeed 	1.3352000060258
scalar MyScenario.node[116].veinsmobility 	maxSpeed 	13.894649754325
scalar MyScenario.node[116].veinsmobility 	totalDistance 	464.62718207611
scalar MyScenario.node[116].veinsmobility 	totalCO2Emission 	146.8040906416
scalar MyScenario.node[110].appl 	generatedWSMs 	0
scalar MyScenario.node[110].appl 	receivedWSMs 	0
scalar MyScenario.node[110].appl 	generatedBSMs 	0
scalar MyScenario.node[110].appl 	receivedBSMs 	0
scalar MyScenario.node[110].appl 	generatedWSAs 	0
scalar MyScenario.node[110].appl 	receivedWSAs 	0
scalar MyScenario.node[110].nic.phy80211p 	busyTime 	0
scalar MyScenario.node[110].nic.mac1609_4 	ReceivedUnicastPackets 	0
scalar MyScenario.node[110].nic.mac1609_4 	ReceivedBroadcasts 	0
scalar MyScenario.node[110].nic.mac1609_4 	SentPackets 	0
scalar MyScenario.node[110].nic.mac1609_4 	SNIRLostPackets 	0
scalar MyScenario.node[110].nic.mac1609_4 	RXTXLostPackets 	0
scalar MyScenario.node[110].nic.mac1609_4 	TotalLostPackets 	0
scalar MyScenario.node[110].nic.mac1609_4 	DroppedPacketsInMac 	0
scalar MyScenario.node[110].nic.mac1609_4 	TooLittleTime 	0
scalar MyScenario.node[110].nic.mac1609_4 	TimesIntoBackoff 	0
scalar MyScenario.node[110].nic.mac1609_4 	SlotsBackoff 	0
scalar MyScenario.node[110].nic.mac1609_4 	NumInternalContention 	0
scalar MyScenario.node[110].nic.mac1609_4 	totalBusyTime 	0
scalar MyScenario.node[110].veinsmobility 	startTime 	1
scalar MyScenario.node[110].veinsmobility 	totalTime 	45
scalar MyScenario.node[110].veinsmobility 	stopTime 	47
scalar MyScenario.node[110].veinsmobility 	minSpeed 	0.18669377971672
scalar MyScenario.node[110].veinsmobility 	maxSpeed 	13.888703695196
scalar MyScenario.node[110].veinsmobility 	totalDistance 	476.96994169779
scalar MyScenario.node[110].veinsmobility 	totalCO2Emission 	135.62544664957
scalar MyScenario.node[248].appl 	generatedWSMs 	0
scalar MyScenario.node[248].appl 	receivedWSMs 	0
scalar MyScenario.node[248].appl 	generatedBSMs 	0
scalar MyScenario.node[248].appl 	receivedBSMs 	0
scalar MyScenario.node[248].appl 	generatedWSAs 	0
scalar MyScenario.node[248].appl 	receivedWSAs 	0
scalar MyScenario.node[248].nic.phy80211p 	busyTime 	7.3818181818182e-05
scalar MyScenario.node[248].nic.mac1609_4 	ReceivedUnicastPackets 	0
scalar MyScenario.node[248].nic.mac1609_4 	ReceivedBroadcasts 	0
scalar MyScenario.node[248].nic.mac1609_4 	SentPackets 	0
scalar MyScenario.node[248].nic.mac1609_4 	SNIRLostPackets 	14
scalar MyScenario.node[248].nic.mac1609_4 	RXTXLostPackets 	0
scalar MyScenario.node[248].nic.mac1609_4 	TotalLostPackets 	14
scalar MyScenario.node[248].nic.mac1609_4 	DroppedPacketsInMac 	0
scalar MyScenario.node[248].nic.mac1609_4 	TooLittleTime 	0
scalar MyScenario.node[248].nic.mac1609_4 	TimesIntoBackoff 	0
scalar MyScenario.node[248].nic.mac1609_4 	SlotsBackoff 	0
scalar MyScenario.node[248].nic.mac1609_4 	NumInternalContention 	0
scalar MyScenario.node[248].nic.mac1609_4 	totalBusyTime 	0.000696
scalar MyScenario.node[248].veinsmobility 	startTime 	3
scalar MyScenario.node[248].veinsmobility 	totalTime 	43
scalar MyScenario.node[248].veinsmobility 	stopTime 	47
scalar MyScenario.node[248].veinsmobility 	minSpeed 	0.28338421698884
scalar MyScenario.node[248].veinsmobility 	maxSpeed 	13.859195637377
scalar MyScenario.node[248].veinsmobility 	totalDistance 	464.64815160039
scalar MyScenario.node[248].veinsmobility 	totalCO2Emission 	147.34102205062
scalar MyScenario.node[21].appl 	generatedWSMs 	0
scalar MyScenario.node[21].appl 	receivedWSMs 	0
scalar MyScenario.node[21].appl 	generatedBSMs 	0
scalar MyScenario.node[21].appl 	receivedBSMs 	0
scalar MyScenario.node[21].appl 	generatedWSAs 	0
scalar MyScenario.node[21].appl 	receivedWSAs 	0
scalar MyScenario.node[21].nic.phy80211p 	busyTime 	0
scalar MyScenario.node[21].nic.mac1609_4 	ReceivedUnicastPackets 	0
scalar MyScenario.node[21].nic.mac1609_4 	ReceivedBroadcasts 	0
scalar MyScenario.node[21].nic.mac1609_4 	SentPackets 	0
scalar MyScenario.node[21].nic.mac1609_4 	SNIRLostPackets 	0
scalar MyScenario.node[21].nic.mac1609_4 	RXTXLostPackets 	0
scalar MyScenario.node[21].nic.mac1609_4 	TotalLostPackets 	0
scalar MyScenario.node[21].nic.mac1609_4 	DroppedPacketsInMac 	0
scalar MyScenario.node[21].nic.mac1609_4 	TooLittleTime 	0
scalar MyScenario.node[21].nic.mac1609_4 	TimesIntoBackoff 	0
scalar MyScenario.node[21].nic.mac1609_4 	SlotsBackoff 	0
scalar MyScenario.node[21].nic.mac1609_4 	NumInternalContention 	0
scalar MyScenario.node[21].nic.mac1609_4 	totalBusyTime 	0
scalar MyScenario.node[21].veinsmobility 	startTime 	1
scalar MyScenario.node[21].veinsmobility 	totalTime 	46
scalar MyScenario.node[21].veinsmobility 	stopTime 	48
scalar MyScenario.node[21].veinsmobility 	minSpeed 	2.262814727542
scalar MyScenario.node[21].veinsmobility 	maxSpeed 	13.830726254475
scalar MyScenario.node[21].veinsmobility 	totalDistance 	483.50902395272
scalar MyScenario.node[21].veinsmobility 	totalCO2Emission 	174.849804956
scalar MyScenario.node[396].appl 	generatedWSMs 	1
scalar MyScenario.node[396].appl 	receivedWSMs 	3
scalar MyScenario.node[396].appl 	generatedBSMs 	0
scalar MyScenario.node[396].appl 	receivedBSMs 	0
scalar MyScenario.node[396].appl 	generatedWSAs 	0
scalar MyScenario.node[396].appl 	receivedWSAs 	0
scalar MyScenario.node[396].nic.phy80211p 	busyTime 	0.00025081081081081
scalar MyScenario.node[396].nic.mac1609_4 	ReceivedUnicastPackets 	0
scalar MyScenario.node[396].nic.mac1609_4 	ReceivedBroadcasts 	3
scalar MyScenario.node[396].nic.mac1609_4 	SentPackets 	1
scalar MyScenario.node[396].nic.mac1609_4 	SNIRLostPackets 	37
scalar MyScenario.node[396].nic.mac1609_4 	RXTXLostPackets 	3
scalar MyScenario.node[396].nic.mac1609_4 	TotalLostPackets 	40
scalar MyScenario.node[396].nic.mac1609_4 	DroppedPacketsInMac 	0
scalar MyScenario.node[396].nic.mac1609_4 	TooLittleTime 	0
scalar MyScenario.node[396].nic.mac1609_4 	TimesIntoBackoff 	1
scalar MyScenario.node[396].nic.mac1609_4 	SlotsBackoff 	2
scalar MyScenario.node[396].nic.mac1609_4 	NumInternalContention 	0
scalar MyScenario.node[396].nic.mac1609_4 	totalBusyTime 	0.001625071603
scalar MyScenario.node[396].veinsmobility 	startTime 	12
scalar MyScenario.node[396].veinsmobility 	totalTime 	36
scalar MyScenario.node[396].veinsmobility 	stopTime 	49
scalar MyScenario.node[396].veinsmobility 	minSpeed 	12.641960812383
scalar MyScenario.node[396].veinsmobility 	maxSpeed 	13.893474295968
scalar MyScenario.node[396].veinsmobility 	totalDistance 	476.0952091383
scalar MyScenario.node[396].veinsmobility 	totalCO2Emission 	79.738669949905
scalar MyScenario.node[304].appl 	generatedWSMs 	0
scalar MyScenario.node[304].appl 	receivedWSMs 	0
scalar MyScenario.node[304].appl 	generatedBSMs 	0
scalar MyScenario.node[304].appl 	receivedBSMs 	0
scalar MyScenario.node[304].appl 	generatedWSAs 	0
scalar MyScenario.node[304].appl 	receivedWSAs 	0
scalar MyScenario.node[304].nic.phy80211p 	busyTime 	0.00012373333333333
scalar MyScenario.node[304].nic.mac1609_4 	ReceivedUnicastPackets 	0
scalar MyScenario.node[304].nic.mac1609_4 	ReceivedBroadcasts 	0
scalar MyScenario.node[304].nic.mac1609_4 	SentPackets 	0
scalar MyScenario.node[304].nic.mac1609_4 	SNIRLostPackets 	24
scalar MyScenario.node[304].nic.mac1609_4 	RXTXLostPackets 	0
scalar MyScenario.node[304].nic.mac1609_4 	TotalLostPackets 	24
scalar MyScenario.node[304].nic.mac1609_4 	DroppedPacketsInMac 	0
scalar MyScenario.node[304].nic.mac1609_4 	TooLittleTime 	0
scalar MyScenario.node[304].nic.mac1609_4 	TimesIntoBackoff 	0
scalar MyScenario.node[304].nic.mac1609_4 	SlotsBackoff 	0
scalar MyScenario.node[304].nic.mac1609_4 	NumInternalContention 	0
scalar MyScenario.node[304].nic.mac1609_4 	totalBusyTime 	0.001392
scalar MyScenario.node[304].veinsmobility 	startTime 	4
scalar MyScenario.node[304].veinsmobility 	totalTime 	44
scalar MyScenario.node[304].veinsmobility 	stopTime 	49
scalar MyScenario.node[304].veinsmobility 	minSpeed 	1.9172379859657e-05
scalar MyScenario.node[304].veinsmobility 	maxSpeed 	13.761267313082
scalar MyScenario.node[304].veinsmobility 	totalDistance 	362.6683802077
scalar MyScenario.node[304].veinsmobility 	totalCO2Emission 	134.8770042346
scalar MyScenario.node[32].appl 	generatedWSMs 	0
scalar MyScenario.node[32].appl 	receivedWSMs 	0
scalar MyScenario.node[32].appl 	generatedBSMs 	0
scalar MyScenario.node[32].appl 	receivedBSMs 	0
scalar MyScenario.node[32].appl 	generatedWSAs 	0
scalar MyScenario.node[32].appl 	receivedWSAs 	0
scalar MyScenario.node[32].nic.phy80211p 	busyTime 	7.7333333333333e-05
scalar MyScenario.node[32].nic.mac1609_4 	ReceivedUnicastPackets 	0
scalar MyScenario.node[32].nic.mac1609_4 	ReceivedBroadcasts 	0
scalar MyScenario.node[32].nic.mac1609_4 	SentPackets 	0
scalar MyScenario.node[32].nic.mac1609_4 	SNIRLostPackets 	16
scalar MyScenario.node[32].nic.mac1609_4 	RXTXLostPackets 	0
scalar MyScenario.node[32].nic.mac1609_4 	TotalLostPackets 	16
scalar MyScenario.node[32].nic.mac1609_4 	DroppedPacketsInMac 	0
scalar MyScenario.node[32].nic.mac1609_4 	TooLittleTime 	0
scalar MyScenario.node[32].nic.mac1609_4 	TimesIntoBackoff 	0
scalar MyScenario.node[32].nic.mac1609_4 	SlotsBackoff 	0
scalar MyScenario.node[32].nic.mac1609_4 	NumInternalContention 	0
scalar MyScenario.node[32].nic.mac1609_4 	totalBusyTime 	0.00116
scalar MyScenario.node[32].veinsmobility 	startTime 	1
scalar MyScenario.node[32].veinsmobility 	totalTime 	47
scalar MyScenario.node[32].veinsmobility 	stopTime 	49
scalar MyScenario.node[32].veinsmobility 	minSpeed 	0.022376624092197
scalar MyScenario.node[32].veinsmobility 	maxSpeed 	13.86555287193
scalar MyScenario.node[32].veinsmobility 	totalDistance 	465.71138944313
scalar MyScenario.node[32].veinsmobility 	totalCO2Emission 	161.35819694447
scalar MyScenario.node[393].appl 	generatedWSMs 	0
scalar MyScenario.node[393].appl 	receivedWSMs 	0
scalar MyScenario.node[393].appl 	generatedBSMs 	0
scalar MyScenario.node[393].appl 	receivedBSMs 	0
scalar MyScenario.node[393].appl 	generatedWSAs 	0
scalar MyScenario.node[393].appl 	receivedWSAs 	0
scalar MyScenario.node[393].nic.phy80211p 	busyTime 	3.1351351351351e-05
scalar MyScenario.node[393].nic.mac1609_4 	ReceivedUnicastPackets 	0
scalar MyScenario.node[393].nic.mac1609_4 	ReceivedBroadcasts 	0
scalar MyScenario.node[393].nic.mac1609_4 	SentPackets 	0
scalar MyScenario.node[393].nic.mac1609_4 	SNIRLostPackets 	5
scalar MyScenario.node[393].nic.mac1609_4 	RXTXLostPackets 	0
scalar MyScenario.node[393].nic.mac1609_4 	TotalLostPackets 	5
scalar MyScenario.node[393].nic.mac1609_4 	DroppedPacketsInMac 	0
scalar MyScenario.node[393].nic.mac1609_4 	TooLittleTime 	0
scalar MyScenario.node[393].nic.mac1609_4 	TimesIntoBackoff 	0
scalar MyScenario.node[393].nic.mac1609_4 	SlotsBackoff 	0
scalar MyScenario.node[393].nic.mac1609_4 	NumInternalContention 	0
scalar MyScenario.node[393].nic.mac1609_4 	totalBusyTime 	0.000928
scalar MyScenario.node[393].veinsmobility 	startTime 	12
scalar MyScenario.node[393].veinsmobility 	totalTime 	36
scalar MyScenario.node[393].veinsmobility 	stopTime 	49
scalar MyScenario.node[393].veinsmobility 	minSpeed 	4.2921759466548
scalar MyScenario.node[393].veinsmobility 	maxSpeed 	13.863288100623
scalar MyScenario.node[393].veinsmobility 	totalDistance 	446.76084382987
scalar MyScenario.node[393].veinsmobility 	totalCO2Emission 	97.987313210125
scalar MyScenario.node[371].appl 	generatedWSMs 	0
scalar MyScenario.node[371].appl 	receivedWSMs 	0
scalar MyScenario.node[371].appl 	generatedBSMs 	0
scalar MyScenario.node[371].appl 	receivedBSMs 	0
[...]
scalar MyScenario.node[345].nic.mac1609_4 	SlotsBackoff 	2
scalar MyScenario.node[345].nic.mac1609_4 	NumInternalContention 	0
scalar MyScenario.node[345].nic.mac1609_4 	totalBusyTime 	0.007889
scalar MyScenario.node[345].veinsmobility 	startTime 	4
scalar MyScenario.node[345].veinsmobility 	totalTime 	165
scalar MyScenario.node[345].veinsmobility 	stopTime 	170
scalar MyScenario.node[345].veinsmobility 	minSpeed 	4.2847549184343e-10
scalar MyScenario.node[345].veinsmobility 	maxSpeed 	13.872995076585
scalar MyScenario.node[345].veinsmobility 	totalDistance 	1179.5144717167
scalar MyScenario.node[345].veinsmobility 	totalCO2Emission 	474.97277635738
scalar MyScenario.node[112].appl 	generatedWSMs 	1
scalar MyScenario.node[112].appl 	receivedWSMs 	8
scalar MyScenario.node[112].appl 	generatedBSMs 	0
scalar MyScenario.node[112].appl 	receivedBSMs 	0
scalar MyScenario.node[112].appl 	generatedWSAs 	0
scalar MyScenario.node[112].appl 	receivedWSAs 	0
scalar MyScenario.node[112].nic.phy80211p 	busyTime 	4.5301775147929e-05
scalar MyScenario.node[112].nic.mac1609_4 	ReceivedUnicastPackets 	0
scalar MyScenario.node[112].nic.mac1609_4 	ReceivedBroadcasts 	8
scalar MyScenario.node[112].nic.mac1609_4 	SentPackets 	1
scalar MyScenario.node[112].nic.mac1609_4 	SNIRLostPackets 	25
scalar MyScenario.node[112].nic.mac1609_4 	RXTXLostPackets 	19
scalar MyScenario.node[112].nic.mac1609_4 	TotalLostPackets 	44
scalar MyScenario.node[112].nic.mac1609_4 	DroppedPacketsInMac 	0
scalar MyScenario.node[112].nic.mac1609_4 	TooLittleTime 	0
scalar MyScenario.node[112].nic.mac1609_4 	TimesIntoBackoff 	1
scalar MyScenario.node[112].nic.mac1609_4 	SlotsBackoff 	1
scalar MyScenario.node[112].nic.mac1609_4 	NumInternalContention 	0
scalar MyScenario.node[112].nic.mac1609_4 	totalBusyTime 	0.003945000088
scalar MyScenario.node[112].veinsmobility 	startTime 	1
scalar MyScenario.node[112].veinsmobility 	totalTime 	168
scalar MyScenario.node[112].veinsmobility 	stopTime 	170
scalar MyScenario.node[112].veinsmobility 	minSpeed 	2.8646825792086e-15
scalar MyScenario.node[112].veinsmobility 	maxSpeed 	13.896157128969
scalar MyScenario.node[112].veinsmobility 	totalDistance 	1267.9056367253
scalar MyScenario.node[112].veinsmobility 	totalCO2Emission 	443.08710603379
scalar MyScenario.node[107].appl 	generatedWSMs 	0
scalar MyScenario.node[107].appl 	receivedWSMs 	0
scalar MyScenario.node[107].appl 	generatedBSMs 	0
scalar MyScenario.node[107].appl 	receivedBSMs 	0
scalar MyScenario.node[107].appl 	generatedWSAs 	0
scalar MyScenario.node[107].appl 	receivedWSAs 	0
scalar MyScenario.node[107].nic.phy80211p 	busyTime 	1.9105882352941e-05
scalar MyScenario.node[107].nic.mac1609_4 	ReceivedUnicastPackets 	0
scalar MyScenario.node[107].nic.mac1609_4 	ReceivedBroadcasts 	0
scalar MyScenario.node[107].nic.mac1609_4 	SentPackets 	0
scalar MyScenario.node[107].nic.mac1609_4 	SNIRLostPackets 	14
scalar MyScenario.node[107].nic.mac1609_4 	RXTXLostPackets 	0
scalar MyScenario.node[107].nic.mac1609_4 	TotalLostPackets 	14
scalar MyScenario.node[107].nic.mac1609_4 	DroppedPacketsInMac 	0
scalar MyScenario.node[107].nic.mac1609_4 	TooLittleTime 	0
scalar MyScenario.node[107].nic.mac1609_4 	TimesIntoBackoff 	0
scalar MyScenario.node[107].nic.mac1609_4 	SlotsBackoff 	0
scalar MyScenario.node[107].nic.mac1609_4 	NumInternalContention 	0
scalar MyScenario.node[107].nic.mac1609_4 	totalBusyTime 	0.000464
scalar MyScenario.node[107].veinsmobility 	startTime 	1
scalar MyScenario.node[107].veinsmobility 	totalTime 	169
scalar MyScenario.node[107].veinsmobility 	stopTime 	171
scalar MyScenario.node[107].veinsmobility 	minSpeed 	6.325297117738e-09
scalar MyScenario.node[107].veinsmobility 	maxSpeed 	13.890933309938
scalar MyScenario.node[107].veinsmobility 	totalDistance 	1570.7143800876
scalar MyScenario.node[107].veinsmobility 	totalCO2Emission 	480.3236296865
scalar MyScenario.node[219].appl 	generatedWSMs 	1
scalar MyScenario.node[219].appl 	receivedWSMs 	15
scalar MyScenario.node[219].appl 	generatedBSMs 	0
scalar MyScenario.node[219].appl 	receivedBSMs 	0
scalar MyScenario.node[219].appl 	generatedWSAs 	0
scalar MyScenario.node[219].appl 	receivedWSAs 	0
scalar MyScenario.node[219].nic.phy80211p 	busyTime 	9.521387283237e-05
scalar MyScenario.node[219].nic.mac1609_4 	ReceivedUnicastPackets 	0
scalar MyScenario.node[219].nic.mac1609_4 	ReceivedBroadcasts 	15
scalar MyScenario.node[219].nic.mac1609_4 	SentPackets 	1
scalar MyScenario.node[219].nic.mac1609_4 	SNIRLostPackets 	56
scalar MyScenario.node[219].nic.mac1609_4 	RXTXLostPackets 	15
scalar MyScenario.node[219].nic.mac1609_4 	TotalLostPackets 	71
scalar MyScenario.node[219].nic.mac1609_4 	DroppedPacketsInMac 	0
scalar MyScenario.node[219].nic.mac1609_4 	TooLittleTime 	0
scalar MyScenario.node[219].nic.mac1609_4 	TimesIntoBackoff 	1
scalar MyScenario.node[219].nic.mac1609_4 	SlotsBackoff 	3
scalar MyScenario.node[219].nic.mac1609_4 	NumInternalContention 	0
scalar MyScenario.node[219].nic.mac1609_4 	totalBusyTime 	0.007425223161
scalar MyScenario.node[219].veinsmobility 	startTime 	1
scalar MyScenario.node[219].veinsmobility 	totalTime 	172
scalar MyScenario.node[219].veinsmobility 	stopTime 	174
scalar MyScenario.node[219].veinsmobility 	minSpeed 	2.4420657189353e-15
scalar MyScenario.node[219].veinsmobility 	maxSpeed 	13.893170866696
scalar MyScenario.node[219].veinsmobility 	totalDistance 	1066.1423725049
scalar MyScenario.node[219].veinsmobility 	totalCO2Emission 	441.32826533067
scalar MyScenario.node[105].appl 	generatedWSMs 	1
scalar MyScenario.node[105].appl 	receivedWSMs 	4
scalar MyScenario.node[105].appl 	generatedBSMs 	0
scalar MyScenario.node[105].appl 	receivedBSMs 	0
scalar MyScenario.node[105].appl 	generatedWSAs 	0
scalar MyScenario.node[105].appl 	receivedWSAs 	0
scalar MyScenario.node[105].nic.phy80211p 	busyTime 	2.2409090909091e-05
scalar MyScenario.node[105].nic.mac1609_4 	ReceivedUnicastPackets 	0
scalar MyScenario.node[105].nic.mac1609_4 	ReceivedBroadcasts 	4
scalar MyScenario.node[105].nic.mac1609_4 	SentPackets 	1
scalar MyScenario.node[105].nic.mac1609_4 	SNIRLostPackets 	13
scalar MyScenario.node[105].nic.mac1609_4 	RXTXLostPackets 	7
scalar MyScenario.node[105].nic.mac1609_4 	TotalLostPackets 	20
scalar MyScenario.node[105].nic.mac1609_4 	DroppedPacketsInMac 	0
scalar MyScenario.node[105].nic.mac1609_4 	TooLittleTime 	0
scalar MyScenario.node[105].nic.mac1609_4 	TimesIntoBackoff 	1
scalar MyScenario.node[105].nic.mac1609_4 	SlotsBackoff 	1
scalar MyScenario.node[105].nic.mac1609_4 	NumInternalContention 	0
scalar MyScenario.node[105].nic.mac1609_4 	totalBusyTime 	0.002785042173
scalar MyScenario.node[105].veinsmobility 	startTime 	1
scalar MyScenario.node[105].veinsmobility 	totalTime 	175
scalar MyScenario.node[105].veinsmobility 	stopTime 	177
scalar MyScenario.node[105].veinsmobility 	minSpeed 	2.8634911553501e-15
scalar MyScenario.node[105].veinsmobility 	maxSpeed 	13.863624986005
scalar MyScenario.node[105].veinsmobility 	totalDistance 	1467.3490442308
scalar MyScenario.node[105].veinsmobility 	totalCO2Emission 	470.13342960101
scalar MyScenario.node[373].appl 	generatedWSMs 	1
scalar MyScenario.node[373].appl 	receivedWSMs 	22
scalar MyScenario.node[373].appl 	generatedBSMs 	0
scalar MyScenario.node[373].appl 	receivedBSMs 	0
scalar MyScenario.node[373].appl 	generatedWSAs 	0
scalar MyScenario.node[373].appl 	receivedWSAs 	0
scalar MyScenario.node[373].nic.phy80211p 	busyTime 	9.225730994152e-05
scalar MyScenario.node[373].nic.mac1609_4 	ReceivedUnicastPackets 	0
scalar MyScenario.node[373].nic.mac1609_4 	ReceivedBroadcasts 	22
scalar MyScenario.node[373].nic.mac1609_4 	SentPackets 	1
scalar MyScenario.node[373].nic.mac1609_4 	SNIRLostPackets 	46
scalar MyScenario.node[373].nic.mac1609_4 	RXTXLostPackets 	4
scalar MyScenario.node[373].nic.mac1609_4 	TotalLostPackets 	50
scalar MyScenario.node[373].nic.mac1609_4 	DroppedPacketsInMac 	0
scalar MyScenario.node[373].nic.mac1609_4 	TooLittleTime 	0
scalar MyScenario.node[373].nic.mac1609_4 	TimesIntoBackoff 	1
scalar MyScenario.node[373].nic.mac1609_4 	SlotsBackoff 	0
scalar MyScenario.node[373].nic.mac1609_4 	NumInternalContention 	0
scalar MyScenario.node[373].nic.mac1609_4 	totalBusyTime 	0.007657023454
scalar MyScenario.node[373].veinsmobility 	startTime 	7
scalar MyScenario.node[373].veinsmobility 	totalTime 	170
scalar MyScenario.node[373].veinsmobility 	stopTime 	178
scalar MyScenario.node[373].veinsmobility 	minSpeed 	2.40520887429e-15
scalar MyScenario.node[373].veinsmobility 	maxSpeed 	13.885338864592
scalar MyScenario.node[373].veinsmobility 	totalDistance 	1074.3828332844
scalar MyScenario.node[373].veinsmobility 	totalCO2Emission 	426.06518128706
scalar MyScenario.node[115].appl 	generatedWSMs 	1
scalar MyScenario.node[115].appl 	receivedWSMs 	4
scalar MyScenario.node[115].appl 	generatedBSMs 	0
scalar MyScenario.node[115].appl 	receivedBSMs 	0
scalar MyScenario.node[115].appl 	generatedWSAs 	0
scalar MyScenario.node[115].appl 	receivedWSAs 	0
scalar MyScenario.node[115].nic.phy80211p 	busyTime 	4.6921348314607e-05
scalar MyScenario.node[115].nic.mac1609_4 	ReceivedUnicastPackets 	0
scalar MyScenario.node[115].nic.mac1609_4 	ReceivedBroadcasts 	4
scalar MyScenario.node[115].nic.mac1609_4 	SentPackets 	1
scalar MyScenario.node[115].nic.mac1609_4 	SNIRLostPackets 	32
scalar MyScenario.node[115].nic.mac1609_4 	RXTXLostPackets 	17
scalar MyScenario.node[115].nic.mac1609_4 	TotalLostPackets 	49
scalar MyScenario.node[115].nic.mac1609_4 	DroppedPacketsInMac 	0
scalar MyScenario.node[115].nic.mac1609_4 	TooLittleTime 	0
scalar MyScenario.node[115].nic.mac1609_4 	TimesIntoBackoff 	1
scalar MyScenario.node[115].nic.mac1609_4 	SlotsBackoff 	3
scalar MyScenario.node[115].nic.mac1609_4 	NumInternalContention 	0
scalar MyScenario.node[115].nic.mac1609_4 	totalBusyTime 	0.002785086126
scalar MyScenario.node[115].veinsmobility 	startTime 	1
scalar MyScenario.node[115].veinsmobility 	totalTime 	177
scalar MyScenario.node[115].veinsmobility 	stopTime 	179
scalar MyScenario.node[115].veinsmobility 	minSpeed 	2.4088788943699e-15
scalar MyScenario.node[115].veinsmobility 	maxSpeed 	13.872024727101
scalar MyScenario.node[115].veinsmobility 	totalDistance 	1078.130824796
scalar MyScenario.node[115].veinsmobility 	totalCO2Emission 	419.97170192154
scalar MyScenario.node[151].appl 	generatedWSMs 	1
scalar MyScenario.node[151].appl 	receivedWSMs 	1
scalar MyScenario.node[151].appl 	generatedBSMs 	0
scalar MyScenario.node[151].appl 	receivedBSMs 	0
scalar MyScenario.node[151].appl 	generatedWSAs 	0
scalar MyScenario.node[151].appl 	receivedWSAs 	0
scalar MyScenario.node[151].nic.phy80211p 	busyTime 	2.5777777777778e-06
scalar MyScenario.node[151].nic.mac1609_4 	ReceivedUnicastPackets 	0
scalar MyScenario.node[151].nic.mac1609_4 	ReceivedBroadcasts 	1
scalar MyScenario.node[151].nic.mac1609_4 	SentPackets 	1
scalar MyScenario.node[151].nic.mac1609_4 	SNIRLostPackets 	1
scalar MyScenario.node[151].nic.mac1609_4 	RXTXLostPackets 	14
scalar MyScenario.node[151].nic.mac1609_4 	TotalLostPackets 	15
scalar MyScenario.node[151].nic.mac1609_4 	DroppedPacketsInMac 	0
scalar MyScenario.node[151].nic.mac1609_4 	TooLittleTime 	0
scalar MyScenario.node[151].nic.mac1609_4 	TimesIntoBackoff 	1
scalar MyScenario.node[151].nic.mac1609_4 	SlotsBackoff 	0
scalar MyScenario.node[151].nic.mac1609_4 	NumInternalContention 	0
scalar MyScenario.node[151].nic.mac1609_4 	totalBusyTime 	0.00069708262
scalar MyScenario.node[151].veinsmobility 	startTime 	1
scalar MyScenario.node[151].veinsmobility 	totalTime 	179
scalar MyScenario.node[151].veinsmobility 	stopTime 	181
scalar MyScenario.node[151].veinsmobility 	minSpeed 	2.6268630486879e-15
scalar MyScenario.node[151].veinsmobility 	maxSpeed 	13.872004739335
scalar MyScenario.node[151].veinsmobility 	totalDistance 	1170.7672288566
scalar MyScenario.node[151].veinsmobility 	totalCO2Emission 	477.26652757297
scalar MyScenario.node[288].appl 	generatedWSMs 	1
scalar MyScenario.node[288].appl 	receivedWSMs 	2
scalar MyScenario.node[288].appl 	generatedBSMs 	0
scalar MyScenario.node[288].appl 	receivedBSMs 	0
scalar MyScenario.node[288].appl 	generatedWSAs 	0
scalar MyScenario.node[288].appl 	receivedWSAs 	0
scalar MyScenario.node[288].nic.phy80211p 	busyTime 	5.1270718232044e-05
scalar MyScenario.node[288].nic.mac1609_4 	ReceivedUnicastPackets 	0
scalar MyScenario.node[288].nic.mac1609_4 	ReceivedBroadcasts 	2
scalar MyScenario.node[288].nic.mac1609_4 	SentPackets 	1
scalar MyScenario.node[288].nic.mac1609_4 	SNIRLostPackets 	38
scalar MyScenario.node[288].nic.mac1609_4 	RXTXLostPackets 	6
scalar MyScenario.node[288].nic.mac1609_4 	TotalLostPackets 	44
scalar MyScenario.node[288].nic.mac1609_4 	DroppedPacketsInMac 	0
scalar MyScenario.node[288].nic.mac1609_4 	TooLittleTime 	0
scalar MyScenario.node[288].nic.mac1609_4 	TimesIntoBackoff 	1
scalar MyScenario.node[288].nic.mac1609_4 	SlotsBackoff 	1
scalar MyScenario.node[288].nic.mac1609_4 	NumInternalContention 	0
scalar MyScenario.node[288].nic.mac1609_4 	totalBusyTime 	0.002089157014
scalar MyScenario.node[288].veinsmobility 	startTime 	4
scalar MyScenario.node[288].veinsmobility 	totalTime 	180
scalar MyScenario.node[288].veinsmobility 	stopTime 	185
scalar MyScenario.node[288].veinsmobility 	minSpeed 	0
scalar MyScenario.node[288].veinsmobility 	maxSpeed 	13.884967047535
scalar MyScenario.node[288].veinsmobility 	totalDistance 	969.88753715231
scalar MyScenario.node[288].veinsmobility 	totalCO2Emission 	429.9726030445
scalar MyScenario.node[268].appl 	generatedWSMs 	1
scalar MyScenario.node[268].appl 	receivedWSMs 	15
scalar MyScenario.node[268].appl 	generatedBSMs 	0
scalar MyScenario.node[268].appl 	receivedBSMs 	0
scalar MyScenario.node[268].appl 	generatedWSAs 	0
scalar MyScenario.node[268].appl 	receivedWSAs 	0
scalar MyScenario.node[268].nic.phy80211p 	busyTime 	5.4813186813187e-05
scalar MyScenario.node[268].nic.mac1609_4 	ReceivedUnicastPackets 	0
scalar MyScenario.node[268].nic.mac1609_4 	ReceivedBroadcasts 	15
scalar MyScenario.node[268].nic.mac1609_4 	SentPackets 	1
scalar MyScenario.node[268].nic.mac1609_4 	SNIRLostPackets 	28
scalar MyScenario.node[268].nic.mac1609_4 	RXTXLostPackets 	2
scalar MyScenario.node[268].nic.mac1609_4 	TotalLostPackets 	30
scalar MyScenario.node[268].nic.mac1609_4 	DroppedPacketsInMac 	0
scalar MyScenario.node[268].nic.mac1609_4 	TooLittleTime 	0
scalar MyScenario.node[268].nic.mac1609_4 	TimesIntoBackoff 	1
scalar MyScenario.node[268].nic.mac1609_4 	SlotsBackoff 	1
scalar MyScenario.node[268].nic.mac1609_4 	NumInternalContention 	0
scalar MyScenario.node[268].nic.mac1609_4 	totalBusyTime 	0.005105
scalar MyScenario.node[268].veinsmobility 	startTime 	4
scalar MyScenario.node[268].veinsmobility 	totalTime 	181
scalar MyScenario.node[268].veinsmobility 	stopTime 	186
scalar MyScenario.node[268].veinsmobility 	minSpeed 	2.4675592163062e-15
scalar MyScenario.node[268].veinsmobility 	maxSpeed 	13.895043217228
scalar MyScenario.node[268].veinsmobility 	totalDistance 	1265.2552276848
scalar MyScenario.node[268].veinsmobility 	totalCO2Emission 	461.13017631653
scalar MyScenario.node[353].appl 	generatedWSMs 	1
scalar MyScenario.node[353].appl 	receivedWSMs 	9
scalar MyScenario.node[353].appl 	generatedBSMs 	0
scalar MyScenario.node[353].appl 	receivedBSMs 	0
scalar MyScenario.node[353].appl 	generatedWSAs 	0
scalar MyScenario.node[353].appl 	receivedWSAs 	0
scalar MyScenario.node[353].nic.phy80211p 	busyTime 	1.8044444444444e-05
scalar MyScenario.node[353].nic.mac1609_4 	ReceivedUnicastPackets 	0
scalar MyScenario.node[353].nic.mac1609_4 	ReceivedBroadcasts 	9
scalar MyScenario.node[353].nic.mac1609_4 	SentPackets 	1
scalar MyScenario.node[353].nic.mac1609_4 	SNIRLostPackets 	5
scalar MyScenario.node[353].nic.mac1609_4 	RXTXLostPackets 	11
scalar MyScenario.node[353].nic.mac1609_4 	TotalLostPackets 	16
scalar MyScenario.node[353].nic.mac1609_4 	DroppedPacketsInMac 	0
scalar MyScenario.node[353].nic.mac1609_4 	TooLittleTime 	0
scalar MyScenario.node[353].nic.mac1609_4 	TimesIntoBackoff 	1
scalar MyScenario.node[353].nic.mac1609_4 	SlotsBackoff 	3
scalar MyScenario.node[353].nic.mac1609_4 	NumInternalContention 	0
scalar MyScenario.node[353].nic.mac1609_4 	totalBusyTime 	0.003249139402
scalar MyScenario.node[353].veinsmobility 	startTime 	7
scalar MyScenario.node[353].veinsmobility 	totalTime 	179
scalar MyScenario.node[353].veinsmobility 	stopTime 	187
scalar MyScenario.node[353].veinsmobility 	minSpeed 	1.2613816958951e-13
scalar MyScenario.node[353].veinsmobility 	maxSpeed 	13.889951081784
scalar MyScenario.node[353].veinsmobility 	totalDistance 	1666.2662736765
scalar MyScenario.node[353].veinsmobility 	totalCO2Emission 	519.92238018834
scalar MyScenario.node[125].appl 	generatedWSMs 	1
scalar MyScenario.node[125].appl 	receivedWSMs 	1
scalar MyScenario.node[125].appl 	generatedBSMs 	0
scalar MyScenario.node[125].appl 	receivedBSMs 	0
scalar MyScenario.node[125].appl 	generatedWSAs 	0
scalar MyScenario.node[125].appl 	receivedWSAs 	0
scalar MyScenario.node[125].nic.phy80211p 	busyTime 	1.2083333333333e-06
scalar MyScenario.node[125].nic.mac1609_4 	ReceivedUnicastPackets 	0
scalar MyScenario.node[125].nic.mac1609_4 	ReceivedBroadcasts 	1
scalar MyScenario.node[125].nic.mac1609_4 	SentPackets 	1
scalar MyScenario.node[125].nic.mac1609_4 	SNIRLostPackets 	0
scalar MyScenario.node[125].nic.mac1609_4 	RXTXLostPackets 	14
scalar MyScenario.node[125].nic.mac1609_4 	TotalLostPackets 	14
scalar MyScenario.node[125].nic.mac1609_4 	DroppedPacketsInMac 	0
scalar MyScenario.node[125].nic.mac1609_4 	TooLittleTime 	0
scalar MyScenario.node[125].nic.mac1609_4 	TimesIntoBackoff 	1
scalar MyScenario.node[125].nic.mac1609_4 	SlotsBackoff 	3
scalar MyScenario.node[125].nic.mac1609_4 	NumInternalContention 	0
scalar MyScenario.node[125].nic.mac1609_4 	totalBusyTime 	0.000465000604
scalar MyScenario.node[125].veinsmobility 	startTime 	1
scalar MyScenario.node[125].veinsmobility 	totalTime 	191
scalar MyScenario.node[125].veinsmobility 	stopTime 	193
scalar MyScenario.node[125].veinsmobility 	minSpeed 	2.5065352172913e-15
scalar MyScenario.node[125].veinsmobility 	maxSpeed 	13.893131191423
scalar MyScenario.node[125].veinsmobility 	totalDistance 	1454.2945343567
scalar MyScenario.node[125].veinsmobility 	totalCO2Emission 	505.36268583301
scalar MyScenario.node[189].appl 	generatedWSMs 	0
scalar MyScenario.node[189].appl 	receivedWSMs 	0
scalar MyScenario.node[189].appl 	generatedBSMs 	0
scalar MyScenario.node[189].appl 	receivedBSMs 	0
scalar MyScenario.node[189].appl 	generatedWSAs 	0
scalar MyScenario.node[189].appl 	receivedWSAs 	0
scalar MyScenario.node[189].nic.phy80211p 	busyTime 	1.1717171717172e-05
scalar MyScenario.node[189].nic.mac1609_4 	ReceivedUnicastPackets 	0
scalar MyScenario.node[189].nic.mac1609_4 	ReceivedBroadcasts 	0
scalar MyScenario.node[189].nic.mac1609_4 	SentPackets 	0
scalar MyScenario.node[189].nic.mac1609_4 	SNIRLostPackets 	10
scalar MyScenario.node[189].nic.mac1609_4 	RXTXLostPackets 	0
scalar MyScenario.node[189].nic.mac1609_4 	TotalLostPackets 	10
scalar MyScenario.node[189].nic.mac1609_4 	DroppedPacketsInMac 	0
scalar MyScenario.node[189].nic.mac1609_4 	TooLittleTime 	0
scalar MyScenario.node[189].nic.mac1609_4 	TimesIntoBackoff 	0
scalar MyScenario.node[189].nic.mac1609_4 	SlotsBackoff 	0
scalar MyScenario.node[189].nic.mac1609_4 	NumInternalContention 	0
scalar MyScenario.node[189].nic.mac1609_4 	totalBusyTime 	0.000464
scalar MyScenario.node[189].veinsmobility 	startTime 	1
scalar MyScenario.node[189].veinsmobility 	totalTime 	197
scalar MyScenario.node[189].veinsmobility 	stopTime 	199
scalar MyScenario.node[189].veinsmobility 	minSpeed 	8.0733999034585e-11
scalar MyScenario.node[189].veinsmobility 	maxSpeed 	13.883093073126
scalar MyScenario.node[189].veinsmobility 	totalDistance 	1667.7992634811
scalar MyScenario.node[189].veinsmobility 	totalCO2Emission 	558.39659628187
