version 2
run General-6-20170829-17:38:51-8100
attr configname General
attr datetime 20170829-17:38:51
attr density 100
attr experiment General
attr inifile omnetpp.ini
attr iterationvars $density=100
attr iterationvars2 "$density=100, $repetition=6"
attr measurement $density=100
attr network com.liborio.pi.MyScenario
attr processid 8100
attr repetition 6
attr replication #6
attr resultdir results
attr runnumber 6
attr seedset 6
param **.coreDebug false
param **.debug false
param *.**.nic.mac1609_4.bitrate 6Mbps
param *.**.nic.mac1609_4.txPower 20mW
param *.**.nic.mac1609_4.useServiceChannel true
param *.**.nic.phy80211p.analogueModels "xmldoc(\"config.xml\")"
param *.**.nic.phy80211p.antenna "xmldoc(\"antenna.xml\", \"/root/Antenna[@id='monopole']\")"
param *.**.nic.phy80211p.decider "xmldoc(\"config.xml\")"
param *.**.nic.phy80211p.sensitivity -84.39dBm
param *.**.nic.phy80211p.thermalNoise -110dBm
param *.**.nic.phy80211p.usePropagationDelay true
param *.**.nic.phy80211p.useThermalNoise true
param *.annotations.draw true
param *.connectionManager.drawMaxIntfDist false
param *.connectionManager.maxInterfDist 2600m
param *.connectionManager.sendDirect true
param *.manager.autoShutdown true
param *.manager.host "\"localhost\""
param *.manager.launchConfig "xmldoc(string(${density = 100, 200, 300, 400})+\"_\"+ string(${repetition})+\".launchd.xml\")"
param *.manager.port 9999
param *.manager.updateInterval 1s
param *.node[*].appl.beaconInterval 1s
param *.node[*].appl.dataOnSch true
param *.node[*].appl.headerLength "80 bit"
param *.node[*].appl.isSource false
param *.node[*].appl.numMsgs 100
param *.node[*].appl.sendBeacons false
param *.node[*].appl.stopTrafficTime 130s
param *.node[*].appl.wsmInterval 3s
param *.node[*].applType "\"Flooding\""
param *.node[*].veinsmobility.x 0
param *.node[*].veinsmobility.y 0
param *.node[*].veinsmobility.z 1.895
param *.node[*].veinsmobilityType.debug true
param *.node[0].appl.isSource true
param *.playgroundSizeX 2500m
param *.playgroundSizeY 2500m
param *.playgroundSizeZ 50m

scalar . 	density 	100
scalar MyScenario.node[39].appl 	generatedWSMs 	0
scalar MyScenario.node[39].appl 	receivedWSMs 	0
scalar MyScenario.node[39].appl 	generatedBSMs 	0
scalar MyScenario.node[39].appl 	receivedBSMs 	0
scalar MyScenario.node[39].appl 	generatedWSAs 	0
scalar MyScenario.node[39].appl 	receivedWSAs 	0
scalar MyScenario.node[39].nic.phy80211p 	busyTime 	8.4363636363636e-05
scalar MyScenario.node[39].nic.mac1609_4 	ReceivedUnicastPackets 	0
scalar MyScenario.node[39].nic.mac1609_4 	ReceivedBroadcasts 	0
scalar MyScenario.node[39].nic.mac1609_4 	SentPackets 	0
scalar MyScenario.node[39].nic.mac1609_4 	SNIRLostPackets 	4
scalar MyScenario.node[39].nic.mac1609_4 	RXTXLostPackets 	0
scalar MyScenario.node[39].nic.mac1609_4 	TotalLostPackets 	4
scalar MyScenario.node[39].nic.mac1609_4 	DroppedPacketsInMac 	0
scalar MyScenario.node[39].nic.mac1609_4 	TooLittleTime 	0
scalar MyScenario.node[39].nic.mac1609_4 	TimesIntoBackoff 	0
scalar MyScenario.node[39].nic.mac1609_4 	SlotsBackoff 	0
scalar MyScenario.node[39].nic.mac1609_4 	NumInternalContention 	0
scalar MyScenario.node[39].nic.mac1609_4 	totalBusyTime 	0.000232
scalar MyScenario.node[39].veinsmobility 	startTime 	1
scalar MyScenario.node[39].veinsmobility 	totalTime 	10
scalar MyScenario.node[39].veinsmobility 	stopTime 	12
scalar MyScenario.node[39].veinsmobility 	minSpeed 	1.5272279287223
scalar MyScenario.node[39].veinsmobility 	maxSpeed 	13.867500271928
scalar MyScenario.node[39].veinsmobility 	totalDistance 	88.526054982289
scalar MyScenario.node[39].veinsmobility 	totalCO2Emission 	40.707229598867
scalar MyScenario.node[75].appl 	generatedWSMs 	0
scalar MyScenario.node[75].appl 	receivedWSMs 	0
scalar MyScenario.node[75].appl 	generatedBSMs 	0
scalar MyScenario.node[75].appl 	receivedBSMs 	0
scalar MyScenario.node[75].appl 	generatedWSAs 	0
scalar MyScenario.node[75].appl 	receivedWSAs 	0
scalar MyScenario.node[75].nic.phy80211p 	busyTime 	0
scalar MyScenario.node[75].nic.mac1609_4 	ReceivedUnicastPackets 	0
scalar MyScenario.node[75].nic.mac1609_4 	ReceivedBroadcasts 	0
scalar MyScenario.node[75].nic.mac1609_4 	SentPackets 	0
scalar MyScenario.node[75].nic.mac1609_4 	SNIRLostPackets 	0
scalar MyScenario.node[75].nic.mac1609_4 	RXTXLostPackets 	0
scalar MyScenario.node[75].nic.mac1609_4 	TotalLostPackets 	0
scalar MyScenario.node[75].nic.mac1609_4 	DroppedPacketsInMac 	0
scalar MyScenario.node[75].nic.mac1609_4 	TooLittleTime 	0
scalar MyScenario.node[75].nic.mac1609_4 	TimesIntoBackoff 	0
scalar MyScenario.node[75].nic.mac1609_4 	SlotsBackoff 	0
scalar MyScenario.node[75].nic.mac1609_4 	NumInternalContention 	0
scalar MyScenario.node[75].nic.mac1609_4 	totalBusyTime 	0
scalar MyScenario.node[75].veinsmobility 	startTime 	1
scalar MyScenario.node[75].veinsmobility 	totalTime 	18
scalar MyScenario.node[75].veinsmobility 	stopTime 	20
scalar MyScenario.node[75].veinsmobility 	minSpeed 	1.8512619351037
scalar MyScenario.node[75].veinsmobility 	maxSpeed 	13.868921503588
scalar MyScenario.node[75].veinsmobility 	totalDistance 	176.59183689742
scalar MyScenario.node[75].veinsmobility 	totalCO2Emission 	72.627183103813
scalar MyScenario.node[28].appl 	generatedWSMs 	1
scalar MyScenario.node[28].appl 	receivedWSMs 	9
scalar MyScenario.node[28].appl 	generatedBSMs 	0
scalar MyScenario.node[28].appl 	receivedBSMs 	0
scalar MyScenario.node[28].appl 	generatedWSAs 	0
scalar MyScenario.node[28].appl 	receivedWSAs 	0
scalar MyScenario.node[28].nic.phy80211p 	busyTime 	0.0001624
scalar MyScenario.node[28].nic.mac1609_4 	ReceivedUnicastPackets 	0
scalar MyScenario.node[28].nic.mac1609_4 	ReceivedBroadcasts 	9
scalar MyScenario.node[28].nic.mac1609_4 	SentPackets 	1
scalar MyScenario.node[28].nic.mac1609_4 	SNIRLostPackets 	5
scalar MyScenario.node[28].nic.mac1609_4 	RXTXLostPackets 	5
scalar MyScenario.node[28].nic.mac1609_4 	TotalLostPackets 	10
scalar MyScenario.node[28].nic.mac1609_4 	DroppedPacketsInMac 	0
scalar MyScenario.node[28].nic.mac1609_4 	TooLittleTime 	0
scalar MyScenario.node[28].nic.mac1609_4 	TimesIntoBackoff 	1
scalar MyScenario.node[28].nic.mac1609_4 	SlotsBackoff 	1
scalar MyScenario.node[28].nic.mac1609_4 	NumInternalContention 	0
scalar MyScenario.node[28].nic.mac1609_4 	totalBusyTime 	0.003017150578
scalar MyScenario.node[28].veinsmobility 	startTime 	1
scalar MyScenario.node[28].veinsmobility 	totalTime 	19
scalar MyScenario.node[28].veinsmobility 	stopTime 	21
scalar MyScenario.node[28].veinsmobility 	minSpeed 	2.2022762779146
scalar MyScenario.node[28].veinsmobility 	maxSpeed 	13.581768584321
scalar MyScenario.node[28].veinsmobility 	totalDistance 	178.88159545582
scalar MyScenario.node[28].veinsmobility 	totalCO2Emission 	70.147230887417
scalar MyScenario.node[16].appl 	generatedWSMs 	0
scalar MyScenario.node[16].appl 	receivedWSMs 	0
scalar MyScenario.node[16].appl 	generatedBSMs 	0
scalar MyScenario.node[16].appl 	receivedBSMs 	0
scalar MyScenario.node[16].appl 	generatedWSAs 	0
scalar MyScenario.node[16].appl 	receivedWSAs 	0
scalar MyScenario.node[16].nic.phy80211p 	busyTime 	0
scalar MyScenario.node[16].nic.mac1609_4 	ReceivedUnicastPackets 	0
scalar MyScenario.node[16].nic.mac1609_4 	ReceivedBroadcasts 	0
scalar MyScenario.node[16].nic.mac1609_4 	SentPackets 	0
scalar MyScenario.node[16].nic.mac1609_4 	SNIRLostPackets 	0
scalar MyScenario.node[16].nic.mac1609_4 	RXTXLostPackets 	0
scalar MyScenario.node[16].nic.mac1609_4 	TotalLostPackets 	0
scalar MyScenario.node[16].nic.mac1609_4 	DroppedPacketsInMac 	0
scalar MyScenario.node[16].nic.mac1609_4 	TooLittleTime 	0
scalar MyScenario.node[16].nic.mac1609_4 	TimesIntoBackoff 	0
scalar MyScenario.node[16].nic.mac1609_4 	SlotsBackoff 	0
scalar MyScenario.node[16].nic.mac1609_4 	NumInternalContention 	0
scalar MyScenario.node[16].nic.mac1609_4 	totalBusyTime 	0
scalar MyScenario.node[16].veinsmobility 	startTime 	1
scalar MyScenario.node[16].veinsmobility 	totalTime 	25
scalar MyScenario.node[16].veinsmobility 	stopTime 	27
scalar MyScenario.node[16].veinsmobility 	minSpeed 	1.9265526630916
scalar MyScenario.node[16].veinsmobility 	maxSpeed 	13.794069589628
scalar MyScenario.node[16].veinsmobility 	totalDistance 	268.61628545697
scalar MyScenario.node[16].veinsmobility 	totalCO2Emission 	83.742417084606
scalar MyScenario.node[23].appl 	generatedWSMs 	1
scalar MyScenario.node[23].appl 	receivedWSMs 	1
scalar MyScenario.node[23].appl 	generatedBSMs 	0
scalar MyScenario.node[23].appl 	receivedBSMs 	0
scalar MyScenario.node[23].appl 	generatedWSAs 	0
scalar MyScenario.node[23].appl 	receivedWSAs 	0
scalar MyScenario.node[23].nic.phy80211p 	busyTime 	5.3028571428571e-05
scalar MyScenario.node[23].nic.mac1609_4 	ReceivedUnicastPackets 	0
scalar MyScenario.node[23].nic.mac1609_4 	ReceivedBroadcasts 	1
scalar MyScenario.node[23].nic.mac1609_4 	SentPackets 	1
scalar MyScenario.node[23].nic.mac1609_4 	SNIRLostPackets 	7
scalar MyScenario.node[23].nic.mac1609_4 	RXTXLostPackets 	1
scalar MyScenario.node[23].nic.mac1609_4 	TotalLostPackets 	8
scalar MyScenario.node[23].nic.mac1609_4 	DroppedPacketsInMac 	0
scalar MyScenario.node[23].nic.mac1609_4 	TooLittleTime 	0
scalar MyScenario.node[23].nic.mac1609_4 	TimesIntoBackoff 	1
scalar MyScenario.node[23].nic.mac1609_4 	SlotsBackoff 	0
scalar MyScenario.node[23].nic.mac1609_4 	NumInternalContention 	0
scalar MyScenario.node[23].nic.mac1609_4 	totalBusyTime 	0.000929
scalar MyScenario.node[23].veinsmobility 	startTime 	1
scalar MyScenario.node[23].veinsmobility 	totalTime 	34
scalar MyScenario.node[23].veinsmobility 	stopTime 	36
scalar MyScenario.node[23].veinsmobility 	minSpeed 	1.3127084472915
scalar MyScenario.node[23].veinsmobility 	maxSpeed 	13.864619751158
scalar MyScenario.node[23].veinsmobility 	totalDistance 	363.41636674105
scalar MyScenario.node[23].veinsmobility 	totalCO2Emission 	119.3275445759
scalar MyScenario.node[1].appl 	generatedWSMs 	1
scalar MyScenario.node[1].appl 	receivedWSMs 	4
scalar MyScenario.node[1].appl 	generatedBSMs 	0
scalar MyScenario.node[1].appl 	receivedBSMs 	0
scalar MyScenario.node[1].appl 	generatedWSAs 	0
scalar MyScenario.node[1].appl 	receivedWSAs 	0
scalar MyScenario.node[1].nic.phy80211p 	busyTime 	7.7333333333333e-05
scalar MyScenario.node[1].nic.mac1609_4 	ReceivedUnicastPackets 	0
scalar MyScenario.node[1].nic.mac1609_4 	ReceivedBroadcasts 	4
scalar MyScenario.node[1].nic.mac1609_4 	SentPackets 	1
scalar MyScenario.node[1].nic.mac1609_4 	SNIRLostPackets 	8
scalar MyScenario.node[1].nic.mac1609_4 	RXTXLostPackets 	6
scalar MyScenario.node[1].nic.mac1609_4 	TotalLostPackets 	14
scalar MyScenario.node[1].nic.mac1609_4 	DroppedPacketsInMac 	0
scalar MyScenario.node[1].nic.mac1609_4 	TooLittleTime 	0
scalar MyScenario.node[1].nic.mac1609_4 	TimesIntoBackoff 	1
scalar MyScenario.node[1].nic.mac1609_4 	SlotsBackoff 	0
scalar MyScenario.node[1].nic.mac1609_4 	NumInternalContention 	0
scalar MyScenario.node[1].nic.mac1609_4 	totalBusyTime 	0.001857138081
scalar MyScenario.node[1].veinsmobility 	startTime 	1
scalar MyScenario.node[1].veinsmobility 	totalTime 	35
scalar MyScenario.node[1].veinsmobility 	stopTime 	37
scalar MyScenario.node[1].veinsmobility 	minSpeed 	2.0043600440724
scalar MyScenario.node[1].veinsmobility 	maxSpeed 	13.756149119022
scalar MyScenario.node[1].veinsmobility 	totalDistance 	367.53147170597
scalar MyScenario.node[1].veinsmobility 	totalCO2Emission 	119.45853950671
scalar MyScenario.node[81].appl 	generatedWSMs 	0
scalar MyScenario.node[81].appl 	receivedWSMs 	0
scalar MyScenario.node[81].appl 	generatedBSMs 	0
scalar MyScenario.node[81].appl 	receivedBSMs 	0
scalar MyScenario.node[81].appl 	generatedWSAs 	0
scalar MyScenario.node[81].appl 	receivedWSAs 	0
scalar MyScenario.node[81].nic.phy80211p 	busyTime 	0
scalar MyScenario.node[81].nic.mac1609_4 	ReceivedUnicastPackets 	0
scalar MyScenario.node[81].nic.mac1609_4 	ReceivedBroadcasts 	0
scalar MyScenario.node[81].nic.mac1609_4 	SentPackets 	0
scalar MyScenario.node[81].nic.mac1609_4 	SNIRLostPackets 	0
scalar MyScenario.node[81].nic.mac1609_4 	RXTXLostPackets 	0
scalar MyScenario.node[81].nic.mac1609_4 	TotalLostPackets 	0
scalar MyScenario.node[81].nic.mac1609_4 	DroppedPacketsInMac 	0
scalar MyScenario.node[81].nic.mac1609_4 	TooLittleTime 	0
scalar MyScenario.node[81].nic.mac1609_4 	TimesIntoBackoff 	0
scalar MyScenario.node[81].nic.mac1609_4 	SlotsBackoff 	0
scalar MyScenario.node[81].nic.mac1609_4 	NumInternalContention 	0
scalar MyScenario.node[81].nic.mac1609_4 	totalBusyTime 	0
scalar MyScenario.node[81].veinsmobility 	startTime 	4
scalar MyScenario.node[81].veinsmobility 	totalTime 	32
scalar MyScenario.node[81].veinsmobility 	stopTime 	37
scalar MyScenario.node[81].veinsmobility 	minSpeed 	2.1425267426996
scalar MyScenario.node[81].veinsmobility 	maxSpeed 	13.82033157025
scalar MyScenario.node[81].veinsmobility 	totalDistance 	361.673366715
scalar MyScenario.node[81].veinsmobility 	totalCO2Emission 	106.17857160415
scalar MyScenario.node[40].appl 	generatedWSMs 	1
scalar MyScenario.node[40].appl 	receivedWSMs 	3
scalar MyScenario.node[40].appl 	generatedBSMs 	0
scalar MyScenario.node[40].appl 	receivedBSMs 	0
scalar MyScenario.node[40].appl 	generatedWSAs 	0
scalar MyScenario.node[40].appl 	receivedWSAs 	0
scalar MyScenario.node[40].nic.phy80211p 	busyTime 	8.3282051282051e-05
scalar MyScenario.node[40].nic.mac1609_4 	ReceivedUnicastPackets 	0
scalar MyScenario.node[40].nic.mac1609_4 	ReceivedBroadcasts 	3
scalar MyScenario.node[40].nic.mac1609_4 	SentPackets 	1
scalar MyScenario.node[40].nic.mac1609_4 	SNIRLostPackets 	11
scalar MyScenario.node[40].nic.mac1609_4 	RXTXLostPackets 	1
scalar MyScenario.node[40].nic.mac1609_4 	TotalLostPackets 	12
scalar MyScenario.node[40].nic.mac1609_4 	DroppedPacketsInMac 	0
scalar MyScenario.node[40].nic.mac1609_4 	TooLittleTime 	0
scalar MyScenario.node[40].nic.mac1609_4 	TimesIntoBackoff 	1
scalar MyScenario.node[40].nic.mac1609_4 	SlotsBackoff 	0
scalar MyScenario.node[40].nic.mac1609_4 	NumInternalContention 	0
scalar MyScenario.node[40].nic.mac1609_4 	totalBusyTime 	0.001625
scalar MyScenario.node[40].veinsmobility 	startTime 	1
scalar MyScenario.node[40].veinsmobility 	totalTime 	38
scalar MyScenario.node[40].veinsmobility 	stopTime 	40
scalar MyScenario.node[40].veinsmobility 	minSpeed 	0.061316786056041
scalar MyScenario.node[40].veinsmobility 	maxSpeed 	13.488406186877
scalar MyScenario.node[40].veinsmobility 	totalDistance 	272.45863052761
scalar MyScenario.node[40].veinsmobility 	totalCO2Emission 	125.01479414243
scalar MyScenario.node[85].appl 	generatedWSMs 	1
scalar MyScenario.node[85].appl 	receivedWSMs 	1
scalar MyScenario.node[85].appl 	generatedBSMs 	0
scalar MyScenario.node[85].appl 	receivedBSMs 	0
scalar MyScenario.node[85].appl 	generatedWSAs 	0
scalar MyScenario.node[85].appl 	receivedWSAs 	0
scalar MyScenario.node[85].nic.phy80211p 	busyTime 	6.5435897435897e-05
scalar MyScenario.node[85].nic.mac1609_4 	ReceivedUnicastPackets 	0
scalar MyScenario.node[85].nic.mac1609_4 	ReceivedBroadcasts 	1
scalar MyScenario.node[85].nic.mac1609_4 	SentPackets 	1
scalar MyScenario.node[85].nic.mac1609_4 	SNIRLostPackets 	10
scalar MyScenario.node[85].nic.mac1609_4 	RXTXLostPackets 	4
scalar MyScenario.node[85].nic.mac1609_4 	TotalLostPackets 	14
scalar MyScenario.node[85].nic.mac1609_4 	DroppedPacketsInMac 	0
scalar MyScenario.node[85].nic.mac1609_4 	TooLittleTime 	0
scalar MyScenario.node[85].nic.mac1609_4 	TimesIntoBackoff 	1
scalar MyScenario.node[85].nic.mac1609_4 	SlotsBackoff 	2
scalar MyScenario.node[85].nic.mac1609_4 	NumInternalContention 	0
scalar MyScenario.node[85].nic.mac1609_4 	totalBusyTime 	0.001161
scalar MyScenario.node[85].veinsmobility 	startTime 	4
scalar MyScenario.node[85].veinsmobility 	totalTime 	38
scalar MyScenario.node[85].veinsmobility 	stopTime 	43
scalar MyScenario.node[85].veinsmobility 	minSpeed 	0.031181667836708
scalar MyScenario.node[85].veinsmobility 	maxSpeed 	13.891441652551
scalar MyScenario.node[85].veinsmobility 	totalDistance 	378.80049705686
scalar MyScenario.node[85].veinsmobility 	totalCO2Emission 	117.30184789695
scalar MyScenario.node[47].appl 	generatedWSMs 	0
scalar MyScenario.node[47].appl 	receivedWSMs 	0
scalar MyScenario.node[47].appl 	generatedBSMs 	0
scalar MyScenario.node[47].appl 	receivedBSMs 	0
scalar MyScenario.node[47].appl 	generatedWSAs 	0
scalar MyScenario.node[47].appl 	receivedWSAs 	0
scalar MyScenario.node[47].nic.phy80211p 	busyTime 	0
scalar MyScenario.node[47].nic.mac1609_4 	ReceivedUnicastPackets 	0
scalar MyScenario.node[47].nic.mac1609_4 	ReceivedBroadcasts 	0
scalar MyScenario.node[47].nic.mac1609_4 	SentPackets 	0
scalar MyScenario.node[47].nic.mac1609_4 	SNIRLostPackets 	0
scalar MyScenario.node[47].nic.mac1609_4 	RXTXLostPackets 	0
scalar MyScenario.node[47].nic.mac1609_4 	TotalLostPackets 	0
scalar MyScenario.node[47].nic.mac1609_4 	DroppedPacketsInMac 	0
scalar MyScenario.node[47].nic.mac1609_4 	TooLittleTime 	0
scalar MyScenario.node[47].nic.mac1609_4 	TimesIntoBackoff 	0
scalar MyScenario.node[47].nic.mac1609_4 	SlotsBackoff 	0
scalar MyScenario.node[47].nic.mac1609_4 	NumInternalContention 	0
scalar MyScenario.node[47].nic.mac1609_4 	totalBusyTime 	0
scalar MyScenario.node[47].veinsmobility 	startTime 	1
scalar MyScenario.node[47].veinsmobility 	totalTime 	41
scalar MyScenario.node[47].veinsmobility 	stopTime 	43
scalar MyScenario.node[47].veinsmobility 	minSpeed 	2.0930317485239
scalar MyScenario.node[47].veinsmobility 	maxSpeed 	13.889277036488
scalar MyScenario.node[47].veinsmobility 	totalDistance 	469.57907776462
scalar MyScenario.node[47].veinsmobility 	totalCO2Emission 	125.16691666934
scalar MyScenario.node[64].appl 	generatedWSMs 	1
scalar MyScenario.node[64].appl 	receivedWSMs 	9
scalar MyScenario.node[64].appl 	generatedBSMs 	0
scalar MyScenario.node[64].appl 	receivedBSMs 	0
scalar MyScenario.node[64].appl 	generatedWSAs 	0
scalar MyScenario.node[64].appl 	receivedWSAs 	0
scalar MyScenario.node[64].nic.phy80211p 	busyTime 	7.1809523809524e-05
scalar MyScenario.node[64].nic.mac1609_4 	ReceivedUnicastPackets 	0
scalar MyScenario.node[64].nic.mac1609_4 	ReceivedBroadcasts 	9
scalar MyScenario.node[64].nic.mac1609_4 	SentPackets 	1
scalar MyScenario.node[64].nic.mac1609_4 	SNIRLostPackets 	4
scalar MyScenario.node[64].nic.mac1609_4 	RXTXLostPackets 	7
scalar MyScenario.node[64].nic.mac1609_4 	TotalLostPackets 	11
scalar MyScenario.node[64].nic.mac1609_4 	DroppedPacketsInMac 	0
scalar MyScenario.node[64].nic.mac1609_4 	TooLittleTime 	0
scalar MyScenario.node[64].nic.mac1609_4 	TimesIntoBackoff 	1
scalar MyScenario.node[64].nic.mac1609_4 	SlotsBackoff 	3
scalar MyScenario.node[64].nic.mac1609_4 	NumInternalContention 	0
scalar MyScenario.node[64].nic.mac1609_4 	totalBusyTime 	0.002553059385
scalar MyScenario.node[64].veinsmobility 	startTime 	1
scalar MyScenario.node[64].veinsmobility 	totalTime 	41
scalar MyScenario.node[64].veinsmobility 	stopTime 	43
scalar MyScenario.node[64].veinsmobility 	minSpeed 	1.6674682130571
scalar MyScenario.node[64].veinsmobility 	maxSpeed 	13.873038006271
scalar MyScenario.node[64].veinsmobility 	totalDistance 	479.30393896286
scalar MyScenario.node[64].veinsmobility 	totalCO2Emission 	120.83675714048
scalar MyScenario.node[66].appl 	generatedWSMs 	1
scalar MyScenario.node[66].appl 	receivedWSMs 	17
scalar MyScenario.node[66].appl 	generatedBSMs 	0
scalar MyScenario.node[66].appl 	receivedBSMs 	0
scalar MyScenario.node[66].appl 	generatedWSAs 	0
scalar MyScenario.node[66].appl 	receivedWSAs 	0
scalar MyScenario.node[66].nic.phy80211p 	busyTime 	0.00015818181818182
scalar MyScenario.node[66].nic.mac1609_4 	ReceivedUnicastPackets 	0
scalar MyScenario.node[66].nic.mac1609_4 	ReceivedBroadcasts 	17
scalar MyScenario.node[66].nic.mac1609_4 	SentPackets 	1
scalar MyScenario.node[66].nic.mac1609_4 	SNIRLostPackets 	13
scalar MyScenario.node[66].nic.mac1609_4 	RXTXLostPackets 	5
scalar MyScenario.node[66].nic.mac1609_4 	TotalLostPackets 	18
scalar MyScenario.node[66].nic.mac1609_4 	DroppedPacketsInMac 	0
scalar MyScenario.node[66].nic.mac1609_4 	TooLittleTime 	0
scalar MyScenario.node[66].nic.mac1609_4 	TimesIntoBackoff 	1
scalar MyScenario.node[66].nic.mac1609_4 	SlotsBackoff 	3
scalar MyScenario.node[66].nic.mac1609_4 	NumInternalContention 	0
scalar MyScenario.node[66].nic.mac1609_4 	totalBusyTime 	0.005569062772
scalar MyScenario.node[66].veinsmobility 	startTime 	1
scalar MyScenario.node[66].veinsmobility 	totalTime 	43
scalar MyScenario.node[66].veinsmobility 	stopTime 	45
scalar MyScenario.node[66].veinsmobility 	minSpeed 	2.3097313193139
scalar MyScenario.node[66].veinsmobility 	maxSpeed 	13.835119039984
scalar MyScenario.node[66].veinsmobility 	totalDistance 	466.16549182149
scalar MyScenario.node[66].veinsmobility 	totalCO2Emission 	154.50897160711
scalar MyScenario.node[80].appl 	generatedWSMs 	1
scalar MyScenario.node[80].appl 	receivedWSMs 	20
scalar MyScenario.node[80].appl 	generatedBSMs 	0
scalar MyScenario.node[80].appl 	receivedBSMs 	0
scalar MyScenario.node[80].appl 	generatedWSAs 	0
scalar MyScenario.node[80].appl 	receivedWSAs 	0
scalar MyScenario.node[80].nic.phy80211p 	busyTime 	0.000116
scalar MyScenario.node[80].nic.mac1609_4 	ReceivedUnicastPackets 	0
scalar MyScenario.node[80].nic.mac1609_4 	ReceivedBroadcasts 	20
scalar MyScenario.node[80].nic.mac1609_4 	SentPackets 	1
scalar MyScenario.node[80].nic.mac1609_4 	SNIRLostPackets 	1
scalar MyScenario.node[80].nic.mac1609_4 	RXTXLostPackets 	3
scalar MyScenario.node[80].nic.mac1609_4 	TotalLostPackets 	4
scalar MyScenario.node[80].nic.mac1609_4 	DroppedPacketsInMac 	0
scalar MyScenario.node[80].nic.mac1609_4 	TooLittleTime 	0
scalar MyScenario.node[80].nic.mac1609_4 	TimesIntoBackoff 	1
scalar MyScenario.node[80].nic.mac1609_4 	SlotsBackoff 	1
scalar MyScenario.node[80].nic.mac1609_4 	NumInternalContention 	0
scalar MyScenario.node[80].nic.mac1609_4 	totalBusyTime 	0.004873
scalar MyScenario.node[80].veinsmobility 	startTime 	4
scalar MyScenario.node[80].veinsmobility 	totalTime 	41
scalar MyScenario.node[80].veinsmobility 	stopTime 	46
scalar MyScenario.node[80].veinsmobility 	minSpeed 	1.4544108692557
scalar MyScenario.node[80].veinsmobility 	maxSpeed 	13.803730079415
scalar MyScenario.node[80].veinsmobility 	totalDistance 	482.77754438665
scalar MyScenario.node[80].veinsmobility 	totalCO2Emission 	124.66889435679
scalar MyScenario.node[54].appl 	generatedWSMs 	1
scalar MyScenario.node[54].appl 	receivedWSMs 	11
scalar MyScenario.node[54].appl 	generatedBSMs 	0
scalar MyScenario.node[54].appl 	receivedBSMs 	0
scalar MyScenario.node[54].appl 	generatedWSAs 	0
scalar MyScenario.node[54].appl 	receivedWSAs 	0
scalar MyScenario.node[54].nic.phy80211p 	busyTime 	7.5755102040816e-05
scalar MyScenario.node[54].nic.mac1609_4 	ReceivedUnicastPackets 	0
scalar MyScenario.node[54].nic.mac1609_4 	ReceivedBroadcasts 	11
scalar MyScenario.node[54].nic.mac1609_4 	SentPackets 	1
scalar MyScenario.node[54].nic.mac1609_4 	SNIRLostPackets 	5
scalar MyScenario.node[54].nic.mac1609_4 	RXTXLostPackets 	5
scalar MyScenario.node[54].nic.mac1609_4 	TotalLostPackets 	10
scalar MyScenario.node[54].nic.mac1609_4 	DroppedPacketsInMac 	0
scalar MyScenario.node[54].nic.mac1609_4 	TooLittleTime 	0
scalar MyScenario.node[54].nic.mac1609_4 	TimesIntoBackoff 	1
scalar MyScenario.node[54].nic.mac1609_4 	SlotsBackoff 	2
scalar MyScenario.node[54].nic.mac1609_4 	NumInternalContention 	0
scalar MyScenario.node[54].nic.mac1609_4 	totalBusyTime 	0.00348115367
scalar MyScenario.node[54].veinsmobility 	startTime 	1
scalar MyScenario.node[54].veinsmobility 	totalTime 	48
scalar MyScenario.node[54].veinsmobility 	stopTime 	50
scalar MyScenario.node[54].veinsmobility 	minSpeed 	1.6675414025551
scalar MyScenario.node[54].veinsmobility 	maxSpeed 	13.879294071905
scalar MyScenario.node[54].veinsmobility 	totalDistance 	557.77222107381
scalar MyScenario.node[54].veinsmobility 	totalCO2Emission 	151.26047115655
scalar MyScenario.node[55].appl 	generatedWSMs 	1
scalar MyScenario.node[55].appl 	receivedWSMs 	3
scalar MyScenario.node[55].appl 	generatedBSMs 	0
scalar MyScenario.node[55].appl 	receivedBSMs 	0
scalar MyScenario.node[55].appl 	generatedWSAs 	0
scalar MyScenario.node[55].appl 	receivedWSAs 	0
scalar MyScenario.node[55].nic.phy80211p 	busyTime 	6.96e-05
scalar MyScenario.node[55].nic.mac1609_4 	ReceivedUnicastPackets 	0
scalar MyScenario.node[55].nic.mac1609_4 	ReceivedBroadcasts 	3
scalar MyScenario.node[55].nic.mac1609_4 	SentPackets 	1
scalar MyScenario.node[55].nic.mac1609_4 	SNIRLostPackets 	12
scalar MyScenario.node[55].nic.mac1609_4 	RXTXLostPackets 	1
scalar MyScenario.node[55].nic.mac1609_4 	TotalLostPackets 	13
scalar MyScenario.node[55].nic.mac1609_4 	DroppedPacketsInMac 	0
scalar MyScenario.node[55].nic.mac1609_4 	TooLittleTime 	0
scalar MyScenario.node[55].nic.mac1609_4 	TimesIntoBackoff 	1
scalar MyScenario.node[55].nic.mac1609_4 	SlotsBackoff 	2
scalar MyScenario.node[55].nic.mac1609_4 	NumInternalContention 	0
scalar MyScenario.node[55].nic.mac1609_4 	totalBusyTime 	0.001625
scalar MyScenario.node[55].veinsmobility 	startTime 	1
scalar MyScenario.node[55].veinsmobility 	totalTime 	49
scalar MyScenario.node[55].veinsmobility 	stopTime 	51
scalar MyScenario.node[55].veinsmobility 	minSpeed 	1.7240149222082
scalar MyScenario.node[55].veinsmobility 	maxSpeed 	13.823959843395
scalar MyScenario.node[55].veinsmobility 	totalDistance 	579.59076883056
scalar MyScenario.node[55].veinsmobility 	totalCO2Emission 	139.71933981255
scalar MyScenario.node[22].appl 	generatedWSMs 	0
scalar MyScenario.node[22].appl 	receivedWSMs 	0
scalar MyScenario.node[22].appl 	generatedBSMs 	0
scalar MyScenario.node[22].appl 	receivedBSMs 	0
scalar MyScenario.node[22].appl 	generatedWSAs 	0
scalar MyScenario.node[22].appl 	receivedWSAs 	0
scalar MyScenario.node[22].nic.phy80211p 	busyTime 	8.7547169811321e-06
scalar MyScenario.node[22].nic.mac1609_4 	ReceivedUnicastPackets 	0
scalar MyScenario.node[22].nic.mac1609_4 	ReceivedBroadcasts 	0
scalar MyScenario.node[22].nic.mac1609_4 	SentPackets 	0
scalar MyScenario.node[22].nic.mac1609_4 	SNIRLostPackets 	2
scalar MyScenario.node[22].nic.mac1609_4 	RXTXLostPackets 	0
scalar MyScenario.node[22].nic.mac1609_4 	TotalLostPackets 	2
scalar MyScenario.node[22].nic.mac1609_4 	DroppedPacketsInMac 	0
scalar MyScenario.node[22].nic.mac1609_4 	TooLittleTime 	0
scalar MyScenario.node[22].nic.mac1609_4 	TimesIntoBackoff 	0
scalar MyScenario.node[22].nic.mac1609_4 	SlotsBackoff 	0
scalar MyScenario.node[22].nic.mac1609_4 	NumInternalContention 	0
scalar MyScenario.node[22].nic.mac1609_4 	totalBusyTime 	0.000232
scalar MyScenario.node[22].veinsmobility 	startTime 	1
scalar MyScenario.node[22].veinsmobility 	totalTime 	52
scalar MyScenario.node[22].veinsmobility 	stopTime 	54
scalar MyScenario.node[22].veinsmobility 	minSpeed 	1.6781287225196
scalar MyScenario.node[22].veinsmobility 	maxSpeed 	13.868708640663
scalar MyScenario.node[22].veinsmobility 	totalDistance 	580.64741131552
scalar MyScenario.node[22].veinsmobility 	totalCO2Emission 	172.16662914689
scalar MyScenario.node[26].appl 	generatedWSMs 	0
scalar MyScenario.node[26].appl 	receivedWSMs 	0
scalar MyScenario.node[26].appl 	generatedBSMs 	0
scalar MyScenario.node[26].appl 	receivedBSMs 	0
scalar MyScenario.node[26].appl 	generatedWSAs 	0
scalar MyScenario.node[26].appl 	receivedWSAs 	0
scalar MyScenario.node[26].nic.phy80211p 	busyTime 	1.9661016949153e-05
scalar MyScenario.node[26].nic.mac1609_4 	ReceivedUnicastPackets 	0
scalar MyScenario.node[26].nic.mac1609_4 	ReceivedBroadcasts 	0
scalar MyScenario.node[26].nic.mac1609_4 	SentPackets 	0
scalar MyScenario.node[26].nic.mac1609_4 	SNIRLostPackets 	5
scalar MyScenario.node[26].nic.mac1609_4 	RXTXLostPackets 	0
scalar MyScenario.node[26].nic.mac1609_4 	TotalLostPackets 	5
scalar MyScenario.node[26].nic.mac1609_4 	DroppedPacketsInMac 	0
scalar MyScenario.node[26].nic.mac1609_4 	TooLittleTime 	0
scalar MyScenario.node[26].nic.mac1609_4 	TimesIntoBackoff 	0
scalar MyScenario.node[26].nic.mac1609_4 	SlotsBackoff 	0
scalar MyScenario.node[26].nic.mac1609_4 	NumInternalContention 	0
scalar MyScenario.node[26].nic.mac1609_4 	totalBusyTime 	0.000696
scalar MyScenario.node[26].veinsmobility 	startTime 	1
scalar MyScenario.node[26].veinsmobility 	totalTime 	58
scalar MyScenario.node[26].veinsmobility 	stopTime 	60
scalar MyScenario.node[26].veinsmobility 	minSpeed 	2.3179634926142
scalar MyScenario.node[26].veinsmobility 	maxSpeed 	13.817229411262
scalar MyScenario.node[26].veinsmobility 	totalDistance 	657.03816348196
scalar MyScenario.node[26].veinsmobility 	totalCO2Emission 	192.6040616072
scalar MyScenario.node[77].appl 	generatedWSMs 	0
scalar MyScenario.node[77].appl 	receivedWSMs 	0
scalar MyScenario.node[77].appl 	generatedBSMs 	0
scalar MyScenario.node[77].appl 	receivedBSMs 	0
scalar MyScenario.node[77].appl 	generatedWSAs 	0
scalar MyScenario.node[77].appl 	receivedWSAs 	0
scalar MyScenario.node[77].nic.phy80211p 	busyTime 	5.8e-05
scalar MyScenario.node[77].nic.mac1609_4 	ReceivedUnicastPackets 	0
scalar MyScenario.node[77].nic.mac1609_4 	ReceivedBroadcasts 	0
scalar MyScenario.node[77].nic.mac1609_4 	SentPackets 	0
scalar MyScenario.node[77].nic.mac1609_4 	SNIRLostPackets 	15
scalar MyScenario.node[77].nic.mac1609_4 	RXTXLostPackets 	0
scalar MyScenario.node[77].nic.mac1609_4 	TotalLostPackets 	15
scalar MyScenario.node[77].nic.mac1609_4 	DroppedPacketsInMac 	0
scalar MyScenario.node[77].nic.mac1609_4 	TooLittleTime 	0
scalar MyScenario.node[77].nic.mac1609_4 	TimesIntoBackoff 	0
scalar MyScenario.node[77].nic.mac1609_4 	SlotsBackoff 	0
scalar MyScenario.node[77].nic.mac1609_4 	NumInternalContention 	0
scalar MyScenario.node[77].nic.mac1609_4 	totalBusyTime 	0.000928
scalar MyScenario.node[77].veinsmobility 	startTime 	1
scalar MyScenario.node[77].veinsmobility 	totalTime 	59
scalar MyScenario.node[77].veinsmobility 	stopTime 	61
scalar MyScenario.node[77].veinsmobility 	minSpeed 	1.761038381746
scalar MyScenario.node[77].veinsmobility 	maxSpeed 	13.864491924318
scalar MyScenario.node[77].veinsmobility 	totalDistance 	666.7813943692
scalar MyScenario.node[77].veinsmobility 	totalCO2Emission 	194.64556681313
scalar MyScenario.node[52].appl 	generatedWSMs 	1
scalar MyScenario.node[52].appl 	receivedWSMs 	2
scalar MyScenario.node[52].appl 	generatedBSMs 	0
scalar MyScenario.node[52].appl 	receivedBSMs 	0
scalar MyScenario.node[52].appl 	generatedWSAs 	0
scalar MyScenario.node[52].appl 	receivedWSAs 	0
scalar MyScenario.node[52].nic.phy80211p 	busyTime 	1.9016393442623e-05
scalar MyScenario.node[52].nic.mac1609_4 	ReceivedUnicastPackets 	0
scalar MyScenario.node[52].nic.mac1609_4 	ReceivedBroadcasts 	2
scalar MyScenario.node[52].nic.mac1609_4 	SentPackets 	1
scalar MyScenario.node[52].nic.mac1609_4 	SNIRLostPackets 	3
scalar MyScenario.node[52].nic.mac1609_4 	RXTXLostPackets 	5
scalar MyScenario.node[52].nic.mac1609_4 	TotalLostPackets 	8
scalar MyScenario.node[52].nic.mac1609_4 	DroppedPacketsInMac 	0
scalar MyScenario.node[52].nic.mac1609_4 	TooLittleTime 	0
scalar MyScenario.node[52].nic.mac1609_4 	TimesIntoBackoff 	1
scalar MyScenario.node[52].nic.mac1609_4 	SlotsBackoff 	3
scalar MyScenario.node[52].nic.mac1609_4 	NumInternalContention 	0
scalar MyScenario.node[52].nic.mac1609_4 	totalBusyTime 	0.001161
scalar MyScenario.node[52].veinsmobility 	startTime 	1
scalar MyScenario.node[52].veinsmobility 	totalTime 	60
scalar MyScenario.node[52].veinsmobility 	stopTime 	62
scalar MyScenario.node[52].veinsmobility 	minSpeed 	1.7985804069089
scalar MyScenario.node[52].veinsmobility 	maxSpeed 	13.872934710421
scalar MyScenario.node[52].veinsmobility 	totalDistance 	671.41133905669
scalar MyScenario.node[52].veinsmobility 	totalCO2Emission 	194.86567488811
scalar MyScenario.node[29].appl 	generatedWSMs 	1
scalar MyScenario.node[29].appl 	receivedWSMs 	12
scalar MyScenario.node[29].appl 	generatedBSMs 	0
scalar MyScenario.node[29].appl 	receivedBSMs 	0
scalar MyScenario.node[29].appl 	generatedWSAs 	0
scalar MyScenario.node[29].appl 	receivedWSAs 	0
scalar MyScenario.node[29].nic.phy80211p 	busyTime 	6.4655737704918e-05
scalar MyScenario.node[29].nic.mac1609_4 	ReceivedUnicastPackets 	0
scalar MyScenario.node[29].nic.mac1609_4 	ReceivedBroadcasts 	12
scalar MyScenario.node[29].nic.mac1609_4 	SentPackets 	1
scalar MyScenario.node[29].nic.mac1609_4 	SNIRLostPackets 	5
scalar MyScenario.node[29].nic.mac1609_4 	RXTXLostPackets 	6
scalar MyScenario.node[29].nic.mac1609_4 	TotalLostPackets 	11
scalar MyScenario.node[29].nic.mac1609_4 	DroppedPacketsInMac 	0
scalar MyScenario.node[29].nic.mac1609_4 	TooLittleTime 	0
scalar MyScenario.node[29].nic.mac1609_4 	TimesIntoBackoff 	1
scalar MyScenario.node[29].nic.mac1609_4 	SlotsBackoff 	0
scalar MyScenario.node[29].nic.mac1609_4 	NumInternalContention 	0
scalar MyScenario.node[29].nic.mac1609_4 	totalBusyTime 	0.003713149638
scalar MyScenario.node[29].veinsmobility 	startTime 	1
scalar MyScenario.node[29].veinsmobility 	totalTime 	60
scalar MyScenario.node[29].veinsmobility 	stopTime 	62
scalar MyScenario.node[29].veinsmobility 	minSpeed 	1.6583726539975
scalar MyScenario.node[29].veinsmobility 	maxSpeed 	13.844502441213
scalar MyScenario.node[29].veinsmobility 	totalDistance 	673.93981887616
scalar MyScenario.node[29].veinsmobility 	totalCO2Emission 	210.04441590354
scalar MyScenario.node[11].appl 	generatedWSMs 	0
scalar MyScenario.node[11].appl 	receivedWSMs 	0
scalar MyScenario.node[11].appl 	generatedBSMs 	0
scalar MyScenario.node[11].appl 	receivedBSMs 	0
scalar MyScenario.node[11].appl 	generatedWSAs 	0
scalar MyScenario.node[11].appl 	receivedWSAs 	0
scalar MyScenario.node[11].nic.phy80211p 	busyTime 	1.1409836065574e-05
scalar MyScenario.node[11].nic.mac1609_4 	ReceivedUnicastPackets 	0
scalar MyScenario.node[11].nic.mac1609_4 	ReceivedBroadcasts 	0
scalar MyScenario.node[11].nic.mac1609_4 	SentPackets 	0
scalar MyScenario.node[11].nic.mac1609_4 	SNIRLostPackets 	3
scalar MyScenario.node[11].nic.mac1609_4 	RXTXLostPackets 	0
scalar MyScenario.node[11].nic.mac1609_4 	TotalLostPackets 	3
scalar MyScenario.node[11].nic.mac1609_4 	DroppedPacketsInMac 	0
scalar MyScenario.node[11].nic.mac1609_4 	TooLittleTime 	0
scalar MyScenario.node[11].nic.mac1609_4 	TimesIntoBackoff 	0
scalar MyScenario.node[11].nic.mac1609_4 	SlotsBackoff 	0
scalar MyScenario.node[11].nic.mac1609_4 	NumInternalContention 	0
scalar MyScenario.node[11].nic.mac1609_4 	totalBusyTime 	0.000464
scalar MyScenario.node[11].veinsmobility 	startTime 	1
scalar MyScenario.node[11].veinsmobility 	totalTime 	60
scalar MyScenario.node[11].veinsmobility 	stopTime 	62
scalar MyScenario.node[11].veinsmobility 	minSpeed 	1.3682811009465
scalar MyScenario.node[11].veinsmobility 	maxSpeed 	13.861586713651
scalar MyScenario.node[11].veinsmobility 	totalDistance 	677.26191618509
scalar MyScenario.node[11].veinsmobility 	totalCO2Emission 	192.64007824859
scalar MyScenario.node[30].appl 	generatedWSMs 	1
scalar MyScenario.node[30].appl 	receivedWSMs 	13
scalar MyScenario.node[30].appl 	generatedBSMs 	0
scalar MyScenario.node[30].appl 	receivedBSMs 	0
scalar MyScenario.node[30].appl 	generatedWSAs 	0
scalar MyScenario.node[30].appl 	receivedWSAs 	0
scalar MyScenario.node[30].nic.phy80211p 	busyTime 	8.3672131147541e-05
scalar MyScenario.node[30].nic.mac1609_4 	ReceivedUnicastPackets 	0
scalar MyScenario.node[30].nic.mac1609_4 	ReceivedBroadcasts 	13
scalar MyScenario.node[30].nic.mac1609_4 	SentPackets 	1
scalar MyScenario.node[30].nic.mac1609_4 	SNIRLostPackets 	9
scalar MyScenario.node[30].nic.mac1609_4 	RXTXLostPackets 	5
scalar MyScenario.node[30].nic.mac1609_4 	TotalLostPackets 	14
scalar MyScenario.node[30].nic.mac1609_4 	DroppedPacketsInMac 	0
scalar MyScenario.node[30].nic.mac1609_4 	TooLittleTime 	0
scalar MyScenario.node[30].nic.mac1609_4 	TimesIntoBackoff 	1
scalar MyScenario.node[30].nic.mac1609_4 	SlotsBackoff 	3
scalar MyScenario.node[30].nic.mac1609_4 	NumInternalContention 	0
scalar MyScenario.node[30].nic.mac1609_4 	totalBusyTime 	0.004409
scalar MyScenario.node[30].veinsmobility 	startTime 	1
scalar MyScenario.node[30].veinsmobility 	totalTime 	60
scalar MyScenario.node[30].veinsmobility 	stopTime 	62
scalar MyScenario.node[30].veinsmobility 	minSpeed 	1.3550585165387
scalar MyScenario.node[30].veinsmobility 	maxSpeed 	13.834442646499
scalar MyScenario.node[30].veinsmobility 	totalDistance 	669.35239892886
scalar MyScenario.node[30].veinsmobility 	totalCO2Emission 	205.44974942555
scalar MyScenario.node[63].appl 	generatedWSMs 	1
scalar MyScenario.node[63].appl 	receivedWSMs 	3
scalar MyScenario.node[63].appl 	generatedBSMs 	0
scalar MyScenario.node[63].appl 	receivedBSMs 	0
scalar MyScenario.node[63].appl 	generatedWSAs 	0
scalar MyScenario.node[63].appl 	receivedWSAs 	0
scalar MyScenario.node[63].nic.phy80211p 	busyTime 	3.3677419354839e-05
scalar MyScenario.node[63].nic.mac1609_4 	ReceivedUnicastPackets 	0
scalar MyScenario.node[63].nic.mac1609_4 	ReceivedBroadcasts 	3
scalar MyScenario.node[63].nic.mac1609_4 	SentPackets 	1
scalar MyScenario.node[63].nic.mac1609_4 	SNIRLostPackets 	6
scalar MyScenario.node[63].nic.mac1609_4 	RXTXLostPackets 	0
scalar MyScenario.node[63].nic.mac1609_4 	TotalLostPackets 	6
scalar MyScenario.node[63].nic.mac1609_4 	DroppedPacketsInMac 	0
scalar MyScenario.node[63].nic.mac1609_4 	TooLittleTime 	0
scalar MyScenario.node[63].nic.mac1609_4 	TimesIntoBackoff 	1
scalar MyScenario.node[63].nic.mac1609_4 	SlotsBackoff 	1
scalar MyScenario.node[63].nic.mac1609_4 	NumInternalContention 	0
scalar MyScenario.node[63].nic.mac1609_4 	totalBusyTime 	0.001393
scalar MyScenario.node[63].veinsmobility 	startTime 	1
scalar MyScenario.node[63].veinsmobility 	totalTime 	61
scalar MyScenario.node[63].veinsmobility 	stopTime 	63
scalar MyScenario.node[63].veinsmobility 	minSpeed 	2.5164690105012
scalar MyScenario.node[63].veinsmobility 	maxSpeed 	13.89373421683
scalar MyScenario.node[63].veinsmobility 	totalDistance 	665.77655151944
scalar MyScenario.node[63].veinsmobility 	totalCO2Emission 	208.66198483742
scalar MyScenario.node[83].appl 	generatedWSMs 	1
scalar MyScenario.node[83].appl 	receivedWSMs 	2
scalar MyScenario.node[83].appl 	generatedBSMs 	0
scalar MyScenario.node[83].appl 	receivedBSMs 	0
scalar MyScenario.node[83].appl 	generatedWSAs 	0
scalar MyScenario.node[83].appl 	receivedWSAs 	0
scalar MyScenario.node[83].nic.phy80211p 	busyTime 	3.5389830508475e-05
scalar MyScenario.node[83].nic.mac1609_4 	ReceivedUnicastPackets 	0
scalar MyScenario.node[83].nic.mac1609_4 	ReceivedBroadcasts 	2
scalar MyScenario.node[83].nic.mac1609_4 	SentPackets 	1
scalar MyScenario.node[83].nic.mac1609_4 	SNIRLostPackets 	7
scalar MyScenario.node[83].nic.mac1609_4 	RXTXLostPackets 	6
scalar MyScenario.node[83].nic.mac1609_4 	TotalLostPackets 	13
scalar MyScenario.node[83].nic.mac1609_4 	DroppedPacketsInMac 	0
scalar MyScenario.node[83].nic.mac1609_4 	TooLittleTime 	0
scalar MyScenario.node[83].nic.mac1609_4 	TimesIntoBackoff 	1
scalar MyScenario.node[83].nic.mac1609_4 	SlotsBackoff 	2
scalar MyScenario.node[83].nic.mac1609_4 	NumInternalContention 	0
scalar MyScenario.node[83].nic.mac1609_4 	totalBusyTime 	0.00162507802
scalar MyScenario.node[83].veinsmobility 	startTime 	4
scalar MyScenario.node[83].veinsmobility 	totalTime 	58
scalar MyScenario.node[83].veinsmobility 	stopTime 	63
scalar MyScenario.node[83].veinsmobility 	minSpeed 	1.5805867844727
scalar MyScenario.node[83].veinsmobility 	maxSpeed 	13.841558559565
scalar MyScenario.node[83].veinsmobility 	totalDistance 	665.22069081561
scalar MyScenario.node[83].veinsmobility 	totalCO2Emission 	171.94937545725
scalar MyScenario.node[94].appl 	generatedWSMs 	1
scalar MyScenario.node[94].appl 	receivedWSMs 	15
scalar MyScenario.node[94].appl 	generatedBSMs 	0
scalar MyScenario.node[94].appl 	receivedBSMs 	0
scalar MyScenario.node[94].appl 	generatedWSAs 	0
scalar MyScenario.node[94].appl 	receivedWSAs 	0
scalar MyScenario.node[94].nic.phy80211p 	busyTime 	9.8305084745763e-05
scalar MyScenario.node[94].nic.mac1609_4 	ReceivedUnicastPackets 	0
scalar MyScenario.node[94].nic.mac1609_4 	ReceivedBroadcasts 	15
scalar MyScenario.node[94].nic.mac1609_4 	SentPackets 	1
scalar MyScenario.node[94].nic.mac1609_4 	SNIRLostPackets 	10
scalar MyScenario.node[94].nic.mac1609_4 	RXTXLostPackets 	2
scalar MyScenario.node[94].nic.mac1609_4 	TotalLostPackets 	12
scalar MyScenario.node[94].nic.mac1609_4 	DroppedPacketsInMac 	0
scalar MyScenario.node[94].nic.mac1609_4 	TooLittleTime 	0
scalar MyScenario.node[94].nic.mac1609_4 	TimesIntoBackoff 	1
scalar MyScenario.node[94].nic.mac1609_4 	SlotsBackoff 	2
scalar MyScenario.node[94].nic.mac1609_4 	NumInternalContention 	0
scalar MyScenario.node[94].nic.mac1609_4 	totalBusyTime 	0.004641
scalar MyScenario.node[94].veinsmobility 	startTime 	4
scalar MyScenario.node[94].veinsmobility 	totalTime 	58
scalar MyScenario.node[94].veinsmobility 	stopTime 	63
scalar MyScenario.node[94].veinsmobility 	minSpeed 	0.02072251607141
scalar MyScenario.node[94].veinsmobility 	maxSpeed 	13.870694817277
scalar MyScenario.node[94].veinsmobility 	totalDistance 	576.55348230014
scalar MyScenario.node[94].veinsmobility 	totalCO2Emission 	190.44778909181
scalar MyScenario.node[41].appl 	generatedWSMs 	1
scalar MyScenario.node[41].appl 	receivedWSMs 	2
scalar MyScenario.node[41].appl 	generatedBSMs 	0
scalar MyScenario.node[41].appl 	receivedBSMs 	0
scalar MyScenario.node[41].appl 	generatedWSAs 	0
scalar MyScenario.node[41].appl 	receivedWSAs 	0
scalar MyScenario.node[41].nic.phy80211p 	busyTime 	3.3677419354839e-05
scalar MyScenario.node[41].nic.mac1609_4 	ReceivedUnicastPackets 	0
scalar MyScenario.node[41].nic.mac1609_4 	ReceivedBroadcasts 	2
scalar MyScenario.node[41].nic.mac1609_4 	SentPackets 	1
scalar MyScenario.node[41].nic.mac1609_4 	SNIRLostPackets 	7
scalar MyScenario.node[41].nic.mac1609_4 	RXTXLostPackets 	6
scalar MyScenario.node[41].nic.mac1609_4 	TotalLostPackets 	13
scalar MyScenario.node[41].nic.mac1609_4 	DroppedPacketsInMac 	0
scalar MyScenario.node[41].nic.mac1609_4 	TooLittleTime 	0
scalar MyScenario.node[41].nic.mac1609_4 	TimesIntoBackoff 	1
scalar MyScenario.node[41].nic.mac1609_4 	SlotsBackoff 	2
scalar MyScenario.node[41].nic.mac1609_4 	NumInternalContention 	0
scalar MyScenario.node[41].nic.mac1609_4 	totalBusyTime 	0.001857
scalar MyScenario.node[41].veinsmobility 	startTime 	1
scalar MyScenario.node[41].veinsmobility 	totalTime 	61
scalar MyScenario.node[41].veinsmobility 	stopTime 	63
scalar MyScenario.node[41].veinsmobility 	minSpeed 	1.5291127405828
scalar MyScenario.node[41].veinsmobility 	maxSpeed 	13.866304456536
scalar MyScenario.node[41].veinsmobility 	totalDistance 	661.39702477178
scalar MyScenario.node[41].veinsmobility 	totalCO2Emission 	227.00067923781
scalar MyScenario.node[53].appl 	generatedWSMs 	1
scalar MyScenario.node[53].appl 	receivedWSMs 	10
scalar MyScenario.node[53].appl 	generatedBSMs 	0
scalar MyScenario.node[53].appl 	receivedBSMs 	0
scalar MyScenario.node[53].appl 	generatedWSAs 	0
scalar MyScenario.node[53].appl 	receivedWSAs 	0
scalar MyScenario.node[53].nic.phy80211p 	busyTime 	3.6825396825397e-05
scalar MyScenario.node[53].nic.mac1609_4 	ReceivedUnicastPackets 	0
scalar MyScenario.node[53].nic.mac1609_4 	ReceivedBroadcasts 	10
scalar MyScenario.node[53].nic.mac1609_4 	SentPackets 	1
scalar MyScenario.node[53].nic.mac1609_4 	SNIRLostPackets 	0
scalar MyScenario.node[53].nic.mac1609_4 	RXTXLostPackets 	1
scalar MyScenario.node[53].nic.mac1609_4 	TotalLostPackets 	1
scalar MyScenario.node[53].nic.mac1609_4 	DroppedPacketsInMac 	0
scalar MyScenario.node[53].nic.mac1609_4 	TooLittleTime 	0
scalar MyScenario.node[53].nic.mac1609_4 	TimesIntoBackoff 	1
scalar MyScenario.node[53].nic.mac1609_4 	SlotsBackoff 	0
scalar MyScenario.node[53].nic.mac1609_4 	NumInternalContention 	0
scalar MyScenario.node[53].nic.mac1609_4 	totalBusyTime 	0.002553
scalar MyScenario.node[53].veinsmobility 	startTime 	1
scalar MyScenario.node[53].veinsmobility 	totalTime 	62
scalar MyScenario.node[53].veinsmobility 	stopTime 	64
scalar MyScenario.node[53].veinsmobility 	minSpeed 	6.2609302181436e-10
scalar MyScenario.node[53].veinsmobility 	maxSpeed 	13.859606040968
scalar MyScenario.node[53].veinsmobility 	totalDistance 	575.34836809151
scalar MyScenario.node[53].veinsmobility 	totalCO2Emission 	160.3979756457
scalar MyScenario.node[78].appl 	generatedWSMs 	1
scalar MyScenario.node[78].appl 	receivedWSMs 	2
scalar MyScenario.node[78].appl 	generatedBSMs 	0
scalar MyScenario.node[78].appl 	receivedBSMs 	0
scalar MyScenario.node[78].appl 	generatedWSAs 	0
scalar MyScenario.node[78].appl 	receivedWSAs 	0
scalar MyScenario.node[78].nic.phy80211p 	busyTime 	4.0507936507937e-05
scalar MyScenario.node[78].nic.mac1609_4 	ReceivedUnicastPackets 	0
scalar MyScenario.node[78].nic.mac1609_4 	ReceivedBroadcasts 	2
scalar MyScenario.node[78].nic.mac1609_4 	SentPackets 	1
scalar MyScenario.node[78].nic.mac1609_4 	SNIRLostPackets 	9
scalar MyScenario.node[78].nic.mac1609_4 	RXTXLostPackets 	0
scalar MyScenario.node[78].nic.mac1609_4 	TotalLostPackets 	9
scalar MyScenario.node[78].nic.mac1609_4 	DroppedPacketsInMac 	0
scalar MyScenario.node[78].nic.mac1609_4 	TooLittleTime 	0
scalar MyScenario.node[78].nic.mac1609_4 	TimesIntoBackoff 	1
scalar MyScenario.node[78].nic.mac1609_4 	SlotsBackoff 	0
scalar MyScenario.node[78].nic.mac1609_4 	NumInternalContention 	0
scalar MyScenario.node[78].nic.mac1609_4 	totalBusyTime 	0.001161
scalar MyScenario.node[78].veinsmobility 	startTime 	1
scalar MyScenario.node[78].veinsmobility 	totalTime 	62
scalar MyScenario.node[78].veinsmobility 	stopTime 	64
scalar MyScenario.node[78].veinsmobility 	minSpeed 	1.6310123151401
scalar MyScenario.node[78].veinsmobility 	maxSpeed 	13.896006302699
scalar MyScenario.node[78].veinsmobility 	totalDistance 	778.34053611362
scalar MyScenario.node[78].veinsmobility 	totalCO2Emission 	162.38843740406
scalar MyScenario.node[82].appl 	generatedWSMs 	1
scalar MyScenario.node[82].appl 	receivedWSMs 	3
scalar MyScenario.node[82].appl 	generatedBSMs 	0
scalar MyScenario.node[82].appl 	receivedBSMs 	0
scalar MyScenario.node[82].appl 	generatedWSAs 	0
scalar MyScenario.node[82].appl 	receivedWSAs 	0
scalar MyScenario.node[82].nic.phy80211p 	busyTime 	4.183606557377e-05
scalar MyScenario.node[82].nic.mac1609_4 	ReceivedUnicastPackets 	0
scalar MyScenario.node[82].nic.mac1609_4 	ReceivedBroadcasts 	3
scalar MyScenario.node[82].nic.mac1609_4 	SentPackets 	1
scalar MyScenario.node[82].nic.mac1609_4 	SNIRLostPackets 	8
scalar MyScenario.node[82].nic.mac1609_4 	RXTXLostPackets 	6
scalar MyScenario.node[82].nic.mac1609_4 	TotalLostPackets 	14
scalar MyScenario.node[82].nic.mac1609_4 	DroppedPacketsInMac 	0
scalar MyScenario.node[82].nic.mac1609_4 	TooLittleTime 	0
scalar MyScenario.node[82].nic.mac1609_4 	TimesIntoBackoff 	1
scalar MyScenario.node[82].nic.mac1609_4 	SlotsBackoff 	3
scalar MyScenario.node[82].nic.mac1609_4 	NumInternalContention 	0
scalar MyScenario.node[82].nic.mac1609_4 	totalBusyTime 	0.001625
scalar MyScenario.node[82].veinsmobility 	startTime 	4
scalar MyScenario.node[82].veinsmobility 	totalTime 	60
scalar MyScenario.node[82].veinsmobility 	stopTime 	65
scalar MyScenario.node[82].veinsmobility 	minSpeed 	2.3079606816173
scalar MyScenario.node[82].veinsmobility 	maxSpeed 	13.820411377237
scalar MyScenario.node[82].veinsmobility 	totalDistance 	657.08242939184
scalar MyScenario.node[82].veinsmobility 	totalCO2Emission 	189.67807618632
scalar MyScenario.node[33].appl 	generatedWSMs 	0
scalar MyScenario.node[33].appl 	receivedWSMs 	0
scalar MyScenario.node[33].appl 	generatedBSMs 	0
scalar MyScenario.node[33].appl 	receivedBSMs 	0
scalar MyScenario.node[33].appl 	generatedWSAs 	0
scalar MyScenario.node[33].appl 	receivedWSAs 	0
scalar MyScenario.node[33].nic.phy80211p 	busyTime 	0
scalar MyScenario.node[33].nic.mac1609_4 	ReceivedUnicastPackets 	0
scalar MyScenario.node[33].nic.mac1609_4 	ReceivedBroadcasts 	0
scalar MyScenario.node[33].nic.mac1609_4 	SentPackets 	0
scalar MyScenario.node[33].nic.mac1609_4 	SNIRLostPackets 	0
scalar MyScenario.node[33].nic.mac1609_4 	RXTXLostPackets 	0
scalar MyScenario.node[33].nic.mac1609_4 	TotalLostPackets 	0
scalar MyScenario.node[33].nic.mac1609_4 	DroppedPacketsInMac 	0
scalar MyScenario.node[33].nic.mac1609_4 	TooLittleTime 	0
scalar MyScenario.node[33].nic.mac1609_4 	TimesIntoBackoff 	0
scalar MyScenario.node[33].nic.mac1609_4 	SlotsBackoff 	0
scalar MyScenario.node[33].nic.mac1609_4 	NumInternalContention 	0
scalar MyScenario.node[33].nic.mac1609_4 	totalBusyTime 	0
scalar MyScenario.node[33].veinsmobility 	startTime 	1
scalar MyScenario.node[33].veinsmobility 	totalTime 	63
scalar MyScenario.node[33].veinsmobility 	stopTime 	65
scalar MyScenario.node[33].veinsmobility 	minSpeed 	0.27432469406145
scalar MyScenario.node[33].veinsmobility 	maxSpeed 	13.877826297167
scalar MyScenario.node[33].veinsmobility 	totalDistance 	683.24276350622
scalar MyScenario.node[33].veinsmobility 	totalCO2Emission 	212.94200904404
scalar MyScenario.node[76].appl 	generatedWSMs 	0
scalar MyScenario.node[76].appl 	receivedWSMs 	0
scalar MyScenario.node[76].appl 	generatedBSMs 	0
scalar MyScenario.node[76].appl 	receivedBSMs 	0
scalar MyScenario.node[76].appl 	generatedWSAs 	0
scalar MyScenario.node[76].appl 	receivedWSAs 	0
scalar MyScenario.node[76].nic.phy80211p 	busyTime 	0
scalar MyScenario.node[76].nic.mac1609_4 	ReceivedUnicastPackets 	0
scalar MyScenario.node[76].nic.mac1609_4 	ReceivedBroadcasts 	0
scalar MyScenario.node[76].nic.mac1609_4 	SentPackets 	0
scalar MyScenario.node[76].nic.mac1609_4 	SNIRLostPackets 	0
scalar MyScenario.node[76].nic.mac1609_4 	RXTXLostPackets 	0
scalar MyScenario.node[76].nic.mac1609_4 	TotalLostPackets 	0
scalar MyScenario.node[76].nic.mac1609_4 	DroppedPacketsInMac 	0
scalar MyScenario.node[76].nic.mac1609_4 	TooLittleTime 	0
scalar MyScenario.node[76].nic.mac1609_4 	TimesIntoBackoff 	0
scalar MyScenario.node[76].nic.mac1609_4 	SlotsBackoff 	0
scalar MyScenario.node[76].nic.mac1609_4 	NumInternalContention 	0
scalar MyScenario.node[76].nic.mac1609_4 	totalBusyTime 	0
scalar MyScenario.node[76].veinsmobility 	startTime 	1
scalar MyScenario.node[76].veinsmobility 	totalTime 	64
scalar MyScenario.node[76].veinsmobility 	stopTime 	66
scalar MyScenario.node[76].veinsmobility 	minSpeed 	2.1684262542287
scalar MyScenario.node[76].veinsmobility 	maxSpeed 	13.892986447806
scalar MyScenario.node[76].veinsmobility 	totalDistance 	769.27026559311
scalar MyScenario.node[76].veinsmobility 	totalCO2Emission 	183.35949141873
scalar MyScenario.node[10].appl 	generatedWSMs 	1
scalar MyScenario.node[10].appl 	receivedWSMs 	8
scalar MyScenario.node[10].appl 	generatedBSMs 	0
scalar MyScenario.node[10].appl 	receivedBSMs 	0
scalar MyScenario.node[10].appl 	generatedWSAs 	0
scalar MyScenario.node[10].appl 	receivedWSAs 	0
scalar MyScenario.node[10].nic.phy80211p 	busyTime 	4.9969230769231e-05
scalar MyScenario.node[10].nic.mac1609_4 	ReceivedUnicastPackets 	0
scalar MyScenario.node[10].nic.mac1609_4 	ReceivedBroadcasts 	8
scalar MyScenario.node[10].nic.mac1609_4 	SentPackets 	1
scalar MyScenario.node[10].nic.mac1609_4 	SNIRLostPackets 	6
scalar MyScenario.node[10].nic.mac1609_4 	RXTXLostPackets 	1
scalar MyScenario.node[10].nic.mac1609_4 	TotalLostPackets 	7
scalar MyScenario.node[10].nic.mac1609_4 	DroppedPacketsInMac 	0
scalar MyScenario.node[10].nic.mac1609_4 	TooLittleTime 	0
scalar MyScenario.node[10].nic.mac1609_4 	TimesIntoBackoff 	1
scalar MyScenario.node[10].nic.mac1609_4 	SlotsBackoff 	2
scalar MyScenario.node[10].nic.mac1609_4 	NumInternalContention 	0
scalar MyScenario.node[10].nic.mac1609_4 	totalBusyTime 	0.002321
scalar MyScenario.node[10].veinsmobility 	startTime 	1
scalar MyScenario.node[10].veinsmobility 	totalTime 	64
scalar MyScenario.node[10].veinsmobility 	stopTime 	66
scalar MyScenario.node[10].veinsmobility 	minSpeed 	2.4377285707975
scalar MyScenario.node[10].veinsmobility 	maxSpeed 	13.896978679532
scalar MyScenario.node[10].veinsmobility 	totalDistance 	771.77406103709
scalar MyScenario.node[10].veinsmobility 	totalCO2Emission 	189.68286834448
scalar MyScenario.node[45].appl 	generatedWSMs 	1
scalar MyScenario.node[45].appl 	receivedWSMs 	3
scalar MyScenario.node[45].appl 	generatedBSMs 	0
scalar MyScenario.node[45].appl 	receivedBSMs 	0
scalar MyScenario.node[45].appl 	generatedWSAs 	0
scalar MyScenario.node[45].appl 	receivedWSAs 	0
scalar MyScenario.node[45].nic.phy80211p 	busyTime 	3.4626865671642e-05
scalar MyScenario.node[45].nic.mac1609_4 	ReceivedUnicastPackets 	0
scalar MyScenario.node[45].nic.mac1609_4 	ReceivedBroadcasts 	3
scalar MyScenario.node[45].nic.mac1609_4 	SentPackets 	1
scalar MyScenario.node[45].nic.mac1609_4 	SNIRLostPackets 	7
scalar MyScenario.node[45].nic.mac1609_4 	RXTXLostPackets 	2
scalar MyScenario.node[45].nic.mac1609_4 	TotalLostPackets 	9
scalar MyScenario.node[45].nic.mac1609_4 	DroppedPacketsInMac 	0
scalar MyScenario.node[45].nic.mac1609_4 	TooLittleTime 	0
scalar MyScenario.node[45].nic.mac1609_4 	TimesIntoBackoff 	1
scalar MyScenario.node[45].nic.mac1609_4 	SlotsBackoff 	2
scalar MyScenario.node[45].nic.mac1609_4 	NumInternalContention 	0
scalar MyScenario.node[45].nic.mac1609_4 	totalBusyTime 	0.001161
scalar MyScenario.node[45].veinsmobility 	startTime 	1
scalar MyScenario.node[45].veinsmobility 	totalTime 	66
scalar MyScenario.node[45].veinsmobility 	stopTime 	68
scalar MyScenario.node[45].veinsmobility 	minSpeed 	0.059169004323416
scalar MyScenario.node[45].veinsmobility 	maxSpeed 	13.804178443598
scalar MyScenario.node[45].veinsmobility 	totalDistance 	683.75720108245
scalar MyScenario.node[45].veinsmobility 	totalCO2Emission 	233.15087328665
scalar MyScenario.node[34].appl 	generatedWSMs 	1
scalar MyScenario.node[34].appl 	receivedWSMs 	12
scalar MyScenario.node[34].appl 	generatedBSMs 	0
scalar MyScenario.node[34].appl 	receivedBSMs 	0
scalar MyScenario.node[34].appl 	generatedWSAs 	0
scalar MyScenario.node[34].appl 	receivedWSAs 	0
scalar MyScenario.node[34].nic.phy80211p 	busyTime 	9.0782608695652e-05
scalar MyScenario.node[34].nic.mac1609_4 	ReceivedUnicastPackets 	0
scalar MyScenario.node[34].nic.mac1609_4 	ReceivedBroadcasts 	12
scalar MyScenario.node[34].nic.mac1609_4 	SentPackets 	1
scalar MyScenario.node[34].nic.mac1609_4 	SNIRLostPackets 	15
scalar MyScenario.node[34].nic.mac1609_4 	RXTXLostPackets 	0
scalar MyScenario.node[34].nic.mac1609_4 	TotalLostPackets 	15
scalar MyScenario.node[34].nic.mac1609_4 	DroppedPacketsInMac 	0
scalar MyScenario.node[34].nic.mac1609_4 	TooLittleTime 	0
scalar MyScenario.node[34].nic.mac1609_4 	TimesIntoBackoff 	1
scalar MyScenario.node[34].nic.mac1609_4 	SlotsBackoff 	0
scalar MyScenario.node[34].nic.mac1609_4 	NumInternalContention 	0
scalar MyScenario.node[34].nic.mac1609_4 	totalBusyTime 	0.004409
scalar MyScenario.node[34].veinsmobility 	startTime 	1
scalar MyScenario.node[34].veinsmobility 	totalTime 	68
scalar MyScenario.node[34].veinsmobility 	stopTime 	70
scalar MyScenario.node[34].veinsmobility 	minSpeed 	2.5291831451468
scalar MyScenario.node[34].veinsmobility 	maxSpeed 	13.884533599415
scalar MyScenario.node[34].veinsmobility 	totalDistance 	761.45617692096
scalar MyScenario.node[34].veinsmobility 	totalCO2Emission 	215.72211081268
scalar MyScenario.node[2].appl 	generatedWSMs 	1
scalar MyScenario.node[2].appl 	receivedWSMs 	5
scalar MyScenario.node[2].appl 	generatedBSMs 	0
scalar MyScenario.node[2].appl 	receivedBSMs 	0
scalar MyScenario.node[2].appl 	generatedWSAs 	0
scalar MyScenario.node[2].appl 	receivedWSAs 	0
scalar MyScenario.node[2].nic.phy80211p 	busyTime 	4.3085714285714e-05
scalar MyScenario.node[2].nic.mac1609_4 	ReceivedUnicastPackets 	0
scalar MyScenario.node[2].nic.mac1609_4 	ReceivedBroadcasts 	5
scalar MyScenario.node[2].nic.mac1609_4 	SentPackets 	1
scalar MyScenario.node[2].nic.mac1609_4 	SNIRLostPackets 	8
scalar MyScenario.node[2].nic.mac1609_4 	RXTXLostPackets 	3
scalar MyScenario.node[2].nic.mac1609_4 	TotalLostPackets 	11
scalar MyScenario.node[2].nic.mac1609_4 	DroppedPacketsInMac 	0
scalar MyScenario.node[2].nic.mac1609_4 	TooLittleTime 	0
scalar MyScenario.node[2].nic.mac1609_4 	TimesIntoBackoff 	1
scalar MyScenario.node[2].nic.mac1609_4 	SlotsBackoff 	0
scalar MyScenario.node[2].nic.mac1609_4 	NumInternalContention 	0
scalar MyScenario.node[2].nic.mac1609_4 	totalBusyTime 	0.001857
scalar MyScenario.node[2].veinsmobility 	startTime 	1
scalar MyScenario.node[2].veinsmobility 	totalTime 	69
scalar MyScenario.node[2].veinsmobility 	stopTime 	71
scalar MyScenario.node[2].veinsmobility 	minSpeed 	2.2677017259644
scalar MyScenario.node[2].veinsmobility 	maxSpeed 	13.841668932373
scalar MyScenario.node[2].veinsmobility 	totalDistance 	774.60788676699
scalar MyScenario.node[2].veinsmobility 	totalCO2Emission 	236.64279662147
scalar MyScenario.node[6].appl 	generatedWSMs 	1
scalar MyScenario.node[6].appl 	receivedWSMs 	7
scalar MyScenario.node[6].appl 	generatedBSMs 	0
scalar MyScenario.node[6].appl 	receivedBSMs 	0
scalar MyScenario.node[6].appl 	generatedWSAs 	0
scalar MyScenario.node[6].appl 	receivedWSAs 	0
scalar MyScenario.node[6].nic.phy80211p 	busyTime 	3.6457142857143e-05
scalar MyScenario.node[6].nic.mac1609_4 	ReceivedUnicastPackets 	0
scalar MyScenario.node[6].nic.mac1609_4 	ReceivedBroadcasts 	7
scalar MyScenario.node[6].nic.mac1609_4 	SentPackets 	1
scalar MyScenario.node[6].nic.mac1609_4 	SNIRLostPackets 	4
scalar MyScenario.node[6].nic.mac1609_4 	RXTXLostPackets 	2
scalar MyScenario.node[6].nic.mac1609_4 	TotalLostPackets 	6
scalar MyScenario.node[6].nic.mac1609_4 	DroppedPacketsInMac 	0
scalar MyScenario.node[6].nic.mac1609_4 	TooLittleTime 	0
scalar MyScenario.node[6].nic.mac1609_4 	TimesIntoBackoff 	1
scalar MyScenario.node[6].nic.mac1609_4 	SlotsBackoff 	2
scalar MyScenario.node[6].nic.mac1609_4 	NumInternalContention 	0
scalar MyScenario.node[6].nic.mac1609_4 	totalBusyTime 	0.002553
scalar MyScenario.node[6].veinsmobility 	startTime 	1
scalar MyScenario.node[6].veinsmobility 	totalTime 	69
scalar MyScenario.node[6].veinsmobility 	stopTime 	71
scalar MyScenario.node[6].veinsmobility 	minSpeed 	1.9723174799932
scalar MyScenario.node[6].veinsmobility 	maxSpeed 	13.891205973621
scalar MyScenario.node[6].veinsmobility 	totalDistance 	767.673573286
scalar MyScenario.node[6].veinsmobility 	totalCO2Emission 	233.34521038209
scalar MyScenario.node[31].appl 	generatedWSMs 	1
scalar MyScenario.node[31].appl 	receivedWSMs 	2
scalar MyScenario.node[31].appl 	generatedBSMs 	0
scalar MyScenario.node[31].appl 	receivedBSMs 	0
scalar MyScenario.node[31].appl 	generatedWSAs 	0
scalar MyScenario.node[31].appl 	receivedWSAs 	0
scalar MyScenario.node[31].nic.phy80211p 	busyTime 	1.6571428571429e-05
scalar MyScenario.node[31].nic.mac1609_4 	ReceivedUnicastPackets 	0
scalar MyScenario.node[31].nic.mac1609_4 	ReceivedBroadcasts 	2
scalar MyScenario.node[31].nic.mac1609_4 	SentPackets 	1
scalar MyScenario.node[31].nic.mac1609_4 	SNIRLostPackets 	3
scalar MyScenario.node[31].nic.mac1609_4 	RXTXLostPackets 	1
scalar MyScenario.node[31].nic.mac1609_4 	TotalLostPackets 	4
scalar MyScenario.node[31].nic.mac1609_4 	DroppedPacketsInMac 	0
scalar MyScenario.node[31].nic.mac1609_4 	TooLittleTime 	0
scalar MyScenario.node[31].nic.mac1609_4 	TimesIntoBackoff 	1
scalar MyScenario.node[31].nic.mac1609_4 	SlotsBackoff 	0
scalar MyScenario.node[31].nic.mac1609_4 	NumInternalContention 	0
scalar MyScenario.node[31].nic.mac1609_4 	totalBusyTime 	0.001161
scalar MyScenario.node[31].veinsmobility 	startTime 	1
scalar MyScenario.node[31].veinsmobility 	totalTime 	69
scalar MyScenario.node[31].veinsmobility 	stopTime 	71
scalar MyScenario.node[31].veinsmobility 	minSpeed 	1.9850660084514
scalar MyScenario.node[31].veinsmobility 	maxSpeed 	13.845586638874
scalar MyScenario.node[31].veinsmobility 	totalDistance 	776.53058836067
scalar MyScenario.node[31].veinsmobility 	totalCO2Emission 	229.87948046271
scalar MyScenario.node[65].appl 	generatedWSMs 	1
scalar MyScenario.node[65].appl 	receivedWSMs 	14
scalar MyScenario.node[65].appl 	generatedBSMs 	0
scalar MyScenario.node[65].appl 	receivedBSMs 	0
scalar MyScenario.node[65].appl 	generatedWSAs 	0
scalar MyScenario.node[65].appl 	receivedWSAs 	0
scalar MyScenario.node[65].nic.phy80211p 	busyTime 	8.2857142857143e-05
scalar MyScenario.node[65].nic.mac1609_4 	ReceivedUnicastPackets 	0
scalar MyScenario.node[65].nic.mac1609_4 	ReceivedBroadcasts 	14
scalar MyScenario.node[65].nic.mac1609_4 	SentPackets 	1
scalar MyScenario.node[65].nic.mac1609_4 	SNIRLostPackets 	11
scalar MyScenario.node[65].nic.mac1609_4 	RXTXLostPackets 	8
scalar MyScenario.node[65].nic.mac1609_4 	TotalLostPackets 	19
scalar MyScenario.node[65].nic.mac1609_4 	DroppedPacketsInMac 	0
scalar MyScenario.node[65].nic.mac1609_4 	TooLittleTime 	0
scalar MyScenario.node[65].nic.mac1609_4 	TimesIntoBackoff 	1
scalar MyScenario.node[65].nic.mac1609_4 	SlotsBackoff 	3
scalar MyScenario.node[65].nic.mac1609_4 	NumInternalContention 	0
scalar MyScenario.node[65].nic.mac1609_4 	totalBusyTime 	0.004873
scalar MyScenario.node[65].veinsmobility 	startTime 	1
scalar MyScenario.node[65].veinsmobility 	totalTime 	69
scalar MyScenario.node[65].veinsmobility 	stopTime 	71
scalar MyScenario.node[65].veinsmobility 	minSpeed 	0.13227926106012
scalar MyScenario.node[65].veinsmobility 	maxSpeed 	13.835558404285
scalar MyScenario.node[65].veinsmobility 	totalDistance 	685.29619874818
scalar MyScenario.node[65].veinsmobility 	totalCO2Emission 	227.70291859268
scalar MyScenario.node[48].appl 	generatedWSMs 	0
scalar MyScenario.node[48].appl 	receivedWSMs 	0
scalar MyScenario.node[48].appl 	generatedBSMs 	0
scalar MyScenario.node[48].appl 	receivedBSMs 	0
scalar MyScenario.node[48].appl 	generatedWSAs 	0
scalar MyScenario.node[48].appl 	receivedWSAs 	0
scalar MyScenario.node[48].nic.phy80211p 	busyTime 	1.9885714285714e-05
scalar MyScenario.node[48].nic.mac1609_4 	ReceivedUnicastPackets 	0
scalar MyScenario.node[48].nic.mac1609_4 	ReceivedBroadcasts 	0
scalar MyScenario.node[48].nic.mac1609_4 	SentPackets 	0
scalar MyScenario.node[48].nic.mac1609_4 	SNIRLostPackets 	6
scalar MyScenario.node[48].nic.mac1609_4 	RXTXLostPackets 	0
scalar MyScenario.node[48].nic.mac1609_4 	TotalLostPackets 	6
scalar MyScenario.node[48].nic.mac1609_4 	DroppedPacketsInMac 	0
scalar MyScenario.node[48].nic.mac1609_4 	TooLittleTime 	0
scalar MyScenario.node[48].nic.mac1609_4 	TimesIntoBackoff 	0
scalar MyScenario.node[48].nic.mac1609_4 	SlotsBackoff 	0
scalar MyScenario.node[48].nic.mac1609_4 	NumInternalContention 	0
scalar MyScenario.node[48].nic.mac1609_4 	totalBusyTime 	0.000464
scalar MyScenario.node[48].veinsmobility 	startTime 	1
scalar MyScenario.node[48].veinsmobility 	totalTime 	69
scalar MyScenario.node[48].veinsmobility 	stopTime 	71
scalar MyScenario.node[48].veinsmobility 	minSpeed 	7.2868800914773e-07
scalar MyScenario.node[48].veinsmobility 	maxSpeed 	13.895233954559
scalar MyScenario.node[48].veinsmobility 	totalDistance 	679.03157630632
scalar MyScenario.node[48].veinsmobility 	totalCO2Emission 	229.27994539792
scalar MyScenario.node[59].appl 	generatedWSMs 	0
scalar MyScenario.node[59].appl 	receivedWSMs 	0
scalar MyScenario.node[59].appl 	generatedBSMs 	0
scalar MyScenario.node[59].appl 	receivedBSMs 	0
scalar MyScenario.node[59].appl 	generatedWSAs 	0
scalar MyScenario.node[59].appl 	receivedWSAs 	0
scalar MyScenario.node[59].nic.phy80211p 	busyTime 	6.6285714285714e-06
scalar MyScenario.node[59].nic.mac1609_4 	ReceivedUnicastPackets 	0
scalar MyScenario.node[59].nic.mac1609_4 	ReceivedBroadcasts 	0
scalar MyScenario.node[59].nic.mac1609_4 	SentPackets 	0
scalar MyScenario.node[59].nic.mac1609_4 	SNIRLostPackets 	2
scalar MyScenario.node[59].nic.mac1609_4 	RXTXLostPackets 	0
scalar MyScenario.node[59].nic.mac1609_4 	TotalLostPackets 	2
scalar MyScenario.node[59].nic.mac1609_4 	DroppedPacketsInMac 	0
scalar MyScenario.node[59].nic.mac1609_4 	TooLittleTime 	0
scalar MyScenario.node[59].nic.mac1609_4 	TimesIntoBackoff 	0
scalar MyScenario.node[59].nic.mac1609_4 	SlotsBackoff 	0
scalar MyScenario.node[59].nic.mac1609_4 	NumInternalContention 	0
scalar MyScenario.node[59].nic.mac1609_4 	totalBusyTime 	0.000232
scalar MyScenario.node[59].veinsmobility 	startTime 	1
scalar MyScenario.node[59].veinsmobility 	totalTime 	69
scalar MyScenario.node[59].veinsmobility 	stopTime 	71
scalar MyScenario.node[59].veinsmobility 	minSpeed 	2.0247363429284
scalar MyScenario.node[59].veinsmobility 	maxSpeed 	13.896589118778
scalar MyScenario.node[59].veinsmobility 	totalDistance 	762.66311467896
scalar MyScenario.node[59].veinsmobility 	totalCO2Emission 	248.1947490726
scalar MyScenario.node[46].appl 	generatedWSMs 	1
scalar MyScenario.node[46].appl 	receivedWSMs 	2
scalar MyScenario.node[46].appl 	generatedBSMs 	0
scalar MyScenario.node[46].appl 	receivedBSMs 	0
scalar MyScenario.node[46].appl 	generatedWSAs 	0
scalar MyScenario.node[46].appl 	receivedWSAs 	0
scalar MyScenario.node[46].nic.phy80211p 	busyTime 	1.3257142857143e-05
scalar MyScenario.node[46].nic.mac1609_4 	ReceivedUnicastPackets 	0
scalar MyScenario.node[46].nic.mac1609_4 	ReceivedBroadcasts 	2
scalar MyScenario.node[46].nic.mac1609_4 	SentPackets 	1
scalar MyScenario.node[46].nic.mac1609_4 	SNIRLostPackets 	2
scalar MyScenario.node[46].nic.mac1609_4 	RXTXLostPackets 	2
scalar MyScenario.node[46].nic.mac1609_4 	TotalLostPackets 	4
scalar MyScenario.node[46].nic.mac1609_4 	DroppedPacketsInMac 	0
scalar MyScenario.node[46].nic.mac1609_4 	TooLittleTime 	0
scalar MyScenario.node[46].nic.mac1609_4 	TimesIntoBackoff 	1
scalar MyScenario.node[46].nic.mac1609_4 	SlotsBackoff 	1
scalar MyScenario.node[46].nic.mac1609_4 	NumInternalContention 	0
scalar MyScenario.node[46].nic.mac1609_4 	totalBusyTime 	0.000929
scalar MyScenario.node[46].veinsmobility 	startTime 	1
scalar MyScenario.node[46].veinsmobility 	totalTime 	69
scalar MyScenario.node[46].veinsmobility 	stopTime 	71
scalar MyScenario.node[46].veinsmobility 	minSpeed 	1.4115459870081
scalar MyScenario.node[46].veinsmobility 	maxSpeed 	13.884050717321
scalar MyScenario.node[46].veinsmobility 	totalDistance 	872.82154256001
scalar MyScenario.node[46].veinsmobility 	totalCO2Emission 	177.11803953408
scalar MyScenario.node[98].appl 	generatedWSMs 	1
scalar MyScenario.node[98].appl 	receivedWSMs 	7
scalar MyScenario.node[98].appl 	generatedBSMs 	0
scalar MyScenario.node[98].appl 	receivedBSMs 	0
scalar MyScenario.node[98].appl 	generatedWSAs 	0
scalar MyScenario.node[98].appl 	receivedWSAs 	0
scalar MyScenario.node[98].nic.phy80211p 	busyTime 	2.6193548387097e-05
scalar MyScenario.node[98].nic.mac1609_4 	ReceivedUnicastPackets 	0
scalar MyScenario.node[98].nic.mac1609_4 	ReceivedBroadcasts 	7
scalar MyScenario.node[98].nic.mac1609_4 	SentPackets 	1
scalar MyScenario.node[98].nic.mac1609_4 	SNIRLostPackets 	0
scalar MyScenario.node[98].nic.mac1609_4 	RXTXLostPackets 	2
scalar MyScenario.node[98].nic.mac1609_4 	TotalLostPackets 	2
scalar MyScenario.node[98].nic.mac1609_4 	DroppedPacketsInMac 	0
scalar MyScenario.node[98].nic.mac1609_4 	TooLittleTime 	0
scalar MyScenario.node[98].nic.mac1609_4 	TimesIntoBackoff 	1
scalar MyScenario.node[98].nic.mac1609_4 	SlotsBackoff 	2
scalar MyScenario.node[98].nic.mac1609_4 	NumInternalContention 	0
scalar MyScenario.node[98].nic.mac1609_4 	totalBusyTime 	0.001857
scalar MyScenario.node[98].veinsmobility 	startTime 	11
scalar MyScenario.node[98].veinsmobility 	totalTime 	61
scalar MyScenario.node[98].veinsmobility 	stopTime 	73
scalar MyScenario.node[98].veinsmobility 	minSpeed 	1.4189172332445
scalar MyScenario.node[98].veinsmobility 	maxSpeed 	13.832398550888
scalar MyScenario.node[98].veinsmobility 	totalDistance 	669.2740111288
scalar MyScenario.node[98].veinsmobility 	totalCO2Emission 	191.24845294614
scalar MyScenario.node[61].appl 	generatedWSMs 	1
scalar MyScenario.node[61].appl 	receivedWSMs 	5
scalar MyScenario.node[61].appl 	generatedBSMs 	0
scalar MyScenario.node[61].appl 	receivedBSMs 	0
scalar MyScenario.node[61].appl 	generatedWSAs 	0
scalar MyScenario.node[61].appl 	receivedWSAs 	0
scalar MyScenario.node[61].nic.phy80211p 	busyTime 	4.7671232876712e-05
scalar MyScenario.node[61].nic.mac1609_4 	ReceivedUnicastPackets 	0
scalar MyScenario.node[61].nic.mac1609_4 	ReceivedBroadcasts 	5
scalar MyScenario.node[61].nic.mac1609_4 	SentPackets 	1
scalar MyScenario.node[61].nic.mac1609_4 	SNIRLostPackets 	10
scalar MyScenario.node[61].nic.mac1609_4 	RXTXLostPackets 	0
scalar MyScenario.node[61].nic.mac1609_4 	TotalLostPackets 	10
scalar MyScenario.node[61].nic.mac1609_4 	DroppedPacketsInMac 	0
scalar MyScenario.node[61].nic.mac1609_4 	TooLittleTime 	0
scalar MyScenario.node[61].nic.mac1609_4 	TimesIntoBackoff 	1
scalar MyScenario.node[61].nic.mac1609_4 	SlotsBackoff 	1
scalar MyScenario.node[61].nic.mac1609_4 	NumInternalContention 	0
scalar MyScenario.node[61].nic.mac1609_4 	totalBusyTime 	0.002089
scalar MyScenario.node[61].veinsmobility 	startTime 	1
scalar MyScenario.node[61].veinsmobility 	totalTime 	72
scalar MyScenario.node[61].veinsmobility 	stopTime 	74
scalar MyScenario.node[61].veinsmobility 	minSpeed 	0.24210596169735
scalar MyScenario.node[61].veinsmobility 	maxSpeed 	13.868506754725
scalar MyScenario.node[61].veinsmobility 	totalDistance 	770.14289220832
scalar MyScenario.node[61].veinsmobility 	totalCO2Emission 	237.83635498747
scalar MyScenario.node[56].appl 	generatedWSMs 	0
scalar MyScenario.node[56].appl 	receivedWSMs 	0
scalar MyScenario.node[56].appl 	generatedBSMs 	0
scalar MyScenario.node[56].appl 	receivedBSMs 	0
scalar MyScenario.node[56].appl 	generatedWSAs 	0
scalar MyScenario.node[56].appl 	receivedWSAs 	0
scalar MyScenario.node[56].nic.phy80211p 	busyTime 	3.1780821917808e-06
scalar MyScenario.node[56].nic.mac1609_4 	ReceivedUnicastPackets 	0
scalar MyScenario.node[56].nic.mac1609_4 	ReceivedBroadcasts 	0
scalar MyScenario.node[56].nic.mac1609_4 	SentPackets 	0
scalar MyScenario.node[56].nic.mac1609_4 	SNIRLostPackets 	1
scalar MyScenario.node[56].nic.mac1609_4 	RXTXLostPackets 	0
scalar MyScenario.node[56].nic.mac1609_4 	TotalLostPackets 	1
scalar MyScenario.node[56].nic.mac1609_4 	DroppedPacketsInMac 	0
scalar MyScenario.node[56].nic.mac1609_4 	TooLittleTime 	0
scalar MyScenario.node[56].nic.mac1609_4 	TimesIntoBackoff 	0
scalar MyScenario.node[56].nic.mac1609_4 	SlotsBackoff 	0
scalar MyScenario.node[56].nic.mac1609_4 	NumInternalContention 	0
scalar MyScenario.node[56].nic.mac1609_4 	totalBusyTime 	0.000232
scalar MyScenario.node[56].veinsmobility 	startTime 	1
scalar MyScenario.node[56].veinsmobility 	totalTime 	72
scalar MyScenario.node[56].veinsmobility 	stopTime 	74
scalar MyScenario.node[56].veinsmobility 	minSpeed 	2.1188577748369
scalar MyScenario.node[56].veinsmobility 	maxSpeed 	13.860084229708
scalar MyScenario.node[56].veinsmobility 	totalDistance 	866.8306391264
scalar MyScenario.node[56].veinsmobility 	totalCO2Emission 	206.85632039058
scalar MyScenario.node[99].appl 	generatedWSMs 	1
scalar MyScenario.node[99].appl 	receivedWSMs 	1
scalar MyScenario.node[99].appl 	generatedBSMs 	0
scalar MyScenario.node[99].appl 	receivedBSMs 	0
scalar MyScenario.node[99].appl 	generatedWSAs 	0
scalar MyScenario.node[99].appl 	receivedWSAs 	0
scalar MyScenario.node[99].nic.phy80211p 	busyTime 	5.9870967741935e-05
scalar MyScenario.node[99].nic.mac1609_4 	ReceivedUnicastPackets 	0
scalar MyScenario.node[99].nic.mac1609_4 	ReceivedBroadcasts 	1
scalar MyScenario.node[99].nic.mac1609_4 	SentPackets 	1
scalar MyScenario.node[99].nic.mac1609_4 	SNIRLostPackets 	15
scalar MyScenario.node[99].nic.mac1609_4 	RXTXLostPackets 	1
scalar MyScenario.node[99].nic.mac1609_4 	TotalLostPackets 	16
scalar MyScenario.node[99].nic.mac1609_4 	DroppedPacketsInMac 	0
scalar MyScenario.node[99].nic.mac1609_4 	TooLittleTime 	0
scalar MyScenario.node[99].nic.mac1609_4 	TimesIntoBackoff 	1
scalar MyScenario.node[99].nic.mac1609_4 	SlotsBackoff 	2
scalar MyScenario.node[99].nic.mac1609_4 	NumInternalContention 	0
scalar MyScenario.node[99].nic.mac1609_4 	totalBusyTime 	0.001857
scalar MyScenario.node[99].veinsmobility 	startTime 	12
scalar MyScenario.node[99].veinsmobility 	totalTime 	61
scalar MyScenario.node[99].veinsmobility 	stopTime 	74
scalar MyScenario.node[99].veinsmobility 	minSpeed 	4.295388629084
scalar MyScenario.node[99].veinsmobility 	maxSpeed 	13.862522665085
scalar MyScenario.node[99].veinsmobility 	totalDistance 	772.26580508953
scalar MyScenario.node[99].veinsmobility 	totalCO2Emission 	153.40445062792
scalar MyScenario.node[60].appl 	generatedWSMs 	1
scalar MyScenario.node[60].appl 	receivedWSMs 	9
scalar MyScenario.node[60].appl 	generatedBSMs 	0
scalar MyScenario.node[60].appl 	receivedBSMs 	0
scalar MyScenario.node[60].appl 	generatedWSAs 	0
scalar MyScenario.node[60].appl 	receivedWSAs 	0
scalar MyScenario.node[60].nic.phy80211p 	busyTime 	4.3891891891892e-05
scalar MyScenario.node[60].nic.mac1609_4 	ReceivedUnicastPackets 	0
scalar MyScenario.node[60].nic.mac1609_4 	ReceivedBroadcasts 	9
scalar MyScenario.node[60].nic.mac1609_4 	SentPackets 	1
scalar MyScenario.node[60].nic.mac1609_4 	SNIRLostPackets 	5
scalar MyScenario.node[60].nic.mac1609_4 	RXTXLostPackets 	4
scalar MyScenario.node[60].nic.mac1609_4 	TotalLostPackets 	9
scalar MyScenario.node[60].nic.mac1609_4 	DroppedPacketsInMac 	0
scalar MyScenario.node[60].nic.mac1609_4 	TooLittleTime 	0
scalar MyScenario.node[60].nic.mac1609_4 	TimesIntoBackoff 	1
scalar MyScenario.node[60].nic.mac1609_4 	SlotsBackoff 	1
scalar MyScenario.node[60].nic.mac1609_4 	NumInternalContention 	0
scalar MyScenario.node[60].nic.mac1609_4 	totalBusyTime 	0.002785
scalar MyScenario.node[60].veinsmobility 	startTime 	1
scalar MyScenario.node[60].veinsmobility 	totalTime 	73
scalar MyScenario.node[60].veinsmobility 	stopTime 	75
scalar MyScenario.node[60].veinsmobility 	minSpeed 	0.0019196597562861
scalar MyScenario.node[60].veinsmobility 	maxSpeed 	13.788901091996
scalar MyScenario.node[60].veinsmobility 	totalDistance 	677.74277422545
scalar MyScenario.node[60].veinsmobility 	totalCO2Emission 	245.41028170096
scalar MyScenario.node[4].appl 	generatedWSMs 	1
scalar MyScenario.node[4].appl 	receivedWSMs 	1
scalar MyScenario.node[4].appl 	generatedBSMs 	0
scalar MyScenario.node[4].appl 	receivedBSMs 	0
scalar MyScenario.node[4].appl 	generatedWSAs 	0
scalar MyScenario.node[4].appl 	receivedWSAs 	0
scalar MyScenario.node[4].nic.phy80211p 	busyTime 	3.0933333333333e-05
scalar MyScenario.node[4].nic.mac1609_4 	ReceivedUnicastPackets 	0
scalar MyScenario.node[4].nic.mac1609_4 	ReceivedBroadcasts 	1
scalar MyScenario.node[4].nic.mac1609_4 	SentPackets 	1
scalar MyScenario.node[4].nic.mac1609_4 	SNIRLostPackets 	9
scalar MyScenario.node[4].nic.mac1609_4 	RXTXLostPackets 	0
scalar MyScenario.node[4].nic.mac1609_4 	TotalLostPackets 	9
scalar MyScenario.node[4].nic.mac1609_4 	DroppedPacketsInMac 	0
scalar MyScenario.node[4].nic.mac1609_4 	TooLittleTime 	0
scalar MyScenario.node[4].nic.mac1609_4 	TimesIntoBackoff 	1
scalar MyScenario.node[4].nic.mac1609_4 	SlotsBackoff 	2
scalar MyScenario.node[4].nic.mac1609_4 	NumInternalContention 	0
scalar MyScenario.node[4].nic.mac1609_4 	totalBusyTime 	0.001161
scalar MyScenario.node[4].veinsmobility 	startTime 	1
scalar MyScenario.node[4].veinsmobility 	totalTime 	74
scalar MyScenario.node[4].veinsmobility 	stopTime 	76
scalar MyScenario.node[4].veinsmobility 	minSpeed 	1.8967820865102
scalar MyScenario.node[4].veinsmobility 	maxSpeed 	13.780104435934
scalar MyScenario.node[4].veinsmobility 	totalDistance 	766.88475709372
scalar MyScenario.node[4].veinsmobility 	totalCO2Emission 	268.29950852835
scalar MyScenario.node[15].appl 	generatedWSMs 	0
scalar MyScenario.node[15].appl 	receivedWSMs 	0
scalar MyScenario.node[15].appl 	generatedBSMs 	0
scalar MyScenario.node[15].appl 	receivedBSMs 	0
scalar MyScenario.node[15].appl 	generatedWSAs 	0
scalar MyScenario.node[15].appl 	receivedWSAs 	0
scalar MyScenario.node[15].nic.phy80211p 	busyTime 	1.8315789473684e-05
scalar MyScenario.node[15].nic.mac1609_4 	ReceivedUnicastPackets 	0
scalar MyScenario.node[15].nic.mac1609_4 	ReceivedBroadcasts 	0
scalar MyScenario.node[15].nic.mac1609_4 	SentPackets 	0
scalar MyScenario.node[15].nic.mac1609_4 	SNIRLostPackets 	6
scalar MyScenario.node[15].nic.mac1609_4 	RXTXLostPackets 	0
scalar MyScenario.node[15].nic.mac1609_4 	TotalLostPackets 	6
scalar MyScenario.node[15].nic.mac1609_4 	DroppedPacketsInMac 	0
scalar MyScenario.node[15].nic.mac1609_4 	TooLittleTime 	0
scalar MyScenario.node[15].nic.mac1609_4 	TimesIntoBackoff 	0
scalar MyScenario.node[15].nic.mac1609_4 	SlotsBackoff 	0
scalar MyScenario.node[15].nic.mac1609_4 	NumInternalContention 	0
scalar MyScenario.node[15].nic.mac1609_4 	totalBusyTime 	0.000928
scalar MyScenario.node[15].veinsmobility 	startTime 	1
scalar MyScenario.node[15].veinsmobility 	totalTime 	75
scalar MyScenario.node[15].veinsmobility 	stopTime 	77
scalar MyScenario.node[15].veinsmobility 	minSpeed 	1.7668638239356
scalar MyScenario.node[15].veinsmobility 	maxSpeed 	13.876387119619
scalar MyScenario.node[15].veinsmobility 	totalDistance 	762.15806720776
scalar MyScenario.node[15].veinsmobility 	totalCO2Emission 	254.94049597414
scalar MyScenario.node[70].appl 	generatedWSMs 	1
scalar MyScenario.node[70].appl 	receivedWSMs 	13
scalar MyScenario.node[70].appl 	generatedBSMs 	0
scalar MyScenario.node[70].appl 	receivedBSMs 	0
scalar MyScenario.node[70].appl 	generatedWSAs 	0
scalar MyScenario.node[70].appl 	receivedWSAs 	0
scalar MyScenario.node[70].nic.phy80211p 	busyTime 	5.1220779220779e-05
scalar MyScenario.node[70].nic.mac1609_4 	ReceivedUnicastPackets 	0
scalar MyScenario.node[70].nic.mac1609_4 	ReceivedBroadcasts 	13
scalar MyScenario.node[70].nic.mac1609_4 	SentPackets 	1
scalar MyScenario.node[70].nic.mac1609_4 	SNIRLostPackets 	4
scalar MyScenario.node[70].nic.mac1609_4 	RXTXLostPackets 	8
scalar MyScenario.node[70].nic.mac1609_4 	TotalLostPackets 	12
scalar MyScenario.node[70].nic.mac1609_4 	DroppedPacketsInMac 	0
scalar MyScenario.node[70].nic.mac1609_4 	TooLittleTime 	0
scalar MyScenario.node[70].nic.mac1609_4 	TimesIntoBackoff 	1
scalar MyScenario.node[70].nic.mac1609_4 	SlotsBackoff 	3
scalar MyScenario.node[70].nic.mac1609_4 	NumInternalContention 	0
scalar MyScenario.node[70].nic.mac1609_4 	totalBusyTime 	0.003481
scalar MyScenario.node[70].veinsmobility 	startTime 	1
scalar MyScenario.node[70].veinsmobility 	totalTime 	76
scalar MyScenario.node[70].veinsmobility 	stopTime 	78
scalar MyScenario.node[70].veinsmobility 	minSpeed 	0.088437218648928
scalar MyScenario.node[70].veinsmobility 	maxSpeed 	13.88406188651
scalar MyScenario.node[70].veinsmobility 	totalDistance 	860.76480108579
scalar MyScenario.node[70].veinsmobility 	totalCO2Emission 	221.40734699853
scalar MyScenario.node[14].appl 	generatedWSMs 	1
scalar MyScenario.node[14].appl 	receivedWSMs 	16
scalar MyScenario.node[14].appl 	generatedBSMs 	0
scalar MyScenario.node[14].appl 	receivedBSMs 	0
scalar MyScenario.node[14].appl 	generatedWSAs 	0
scalar MyScenario.node[14].appl 	receivedWSAs 	0
scalar MyScenario.node[14].nic.phy80211p 	busyTime 	8.1350649350649e-05
scalar MyScenario.node[14].nic.mac1609_4 	ReceivedUnicastPackets 	0
scalar MyScenario.node[14].nic.mac1609_4 	ReceivedBroadcasts 	16
scalar MyScenario.node[14].nic.mac1609_4 	SentPackets 	1
scalar MyScenario.node[14].nic.mac1609_4 	SNIRLostPackets 	11
scalar MyScenario.node[14].nic.mac1609_4 	RXTXLostPackets 	4
scalar MyScenario.node[14].nic.mac1609_4 	TotalLostPackets 	15
scalar MyScenario.node[14].nic.mac1609_4 	DroppedPacketsInMac 	0
scalar MyScenario.node[14].nic.mac1609_4 	TooLittleTime 	0
scalar MyScenario.node[14].nic.mac1609_4 	TimesIntoBackoff 	1
scalar MyScenario.node[14].nic.mac1609_4 	SlotsBackoff 	2
scalar MyScenario.node[14].nic.mac1609_4 	NumInternalContention 	0
scalar MyScenario.node[14].nic.mac1609_4 	totalBusyTime 	0.005105
scalar MyScenario.node[14].veinsmobility 	startTime 	1
[...]
scalar MyScenario.node[100].nic.mac1609_4 	ReceivedUnicastPackets 	0
scalar MyScenario.node[100].nic.mac1609_4 	ReceivedBroadcasts 	5
scalar MyScenario.node[100].nic.mac1609_4 	SentPackets 	1
scalar MyScenario.node[100].nic.mac1609_4 	SNIRLostPackets 	0
scalar MyScenario.node[100].nic.mac1609_4 	RXTXLostPackets 	0
scalar MyScenario.node[100].nic.mac1609_4 	TotalLostPackets 	0
scalar MyScenario.node[100].nic.mac1609_4 	DroppedPacketsInMac 	0
scalar MyScenario.node[100].nic.mac1609_4 	TooLittleTime 	0
scalar MyScenario.node[100].nic.mac1609_4 	TimesIntoBackoff 	1
scalar MyScenario.node[100].nic.mac1609_4 	SlotsBackoff 	1
scalar MyScenario.node[100].nic.mac1609_4 	NumInternalContention 	0
scalar MyScenario.node[100].nic.mac1609_4 	totalBusyTime 	0.001393
scalar MyScenario.node[100].veinsmobility 	startTime 	14
scalar MyScenario.node[100].veinsmobility 	totalTime 	97
scalar MyScenario.node[100].veinsmobility 	stopTime 	112
scalar MyScenario.node[100].veinsmobility 	minSpeed 	2.3325289146043
scalar MyScenario.node[100].veinsmobility 	maxSpeed 	13.887355485652
scalar MyScenario.node[100].veinsmobility 	totalDistance 	1184.6331421358
scalar MyScenario.node[100].veinsmobility 	totalCO2Emission 	258.75091657679
scalar MyScenario.node[92].appl 	generatedWSMs 	1
scalar MyScenario.node[92].appl 	receivedWSMs 	13
scalar MyScenario.node[92].appl 	generatedBSMs 	0
scalar MyScenario.node[92].appl 	receivedBSMs 	0
scalar MyScenario.node[92].appl 	generatedWSAs 	0
scalar MyScenario.node[92].appl 	receivedWSAs 	0
scalar MyScenario.node[92].nic.phy80211p 	busyTime 	4.64e-05
scalar MyScenario.node[92].nic.mac1609_4 	ReceivedUnicastPackets 	0
scalar MyScenario.node[92].nic.mac1609_4 	ReceivedBroadcasts 	13
scalar MyScenario.node[92].nic.mac1609_4 	SentPackets 	1
scalar MyScenario.node[92].nic.mac1609_4 	SNIRLostPackets 	9
scalar MyScenario.node[92].nic.mac1609_4 	RXTXLostPackets 	0
scalar MyScenario.node[92].nic.mac1609_4 	TotalLostPackets 	9
scalar MyScenario.node[92].nic.mac1609_4 	DroppedPacketsInMac 	0
scalar MyScenario.node[92].nic.mac1609_4 	TooLittleTime 	0
scalar MyScenario.node[92].nic.mac1609_4 	TimesIntoBackoff 	1
scalar MyScenario.node[92].nic.mac1609_4 	SlotsBackoff 	2
scalar MyScenario.node[92].nic.mac1609_4 	NumInternalContention 	0
scalar MyScenario.node[92].nic.mac1609_4 	totalBusyTime 	0.003945
scalar MyScenario.node[92].veinsmobility 	startTime 	4
scalar MyScenario.node[92].veinsmobility 	totalTime 	109
scalar MyScenario.node[92].veinsmobility 	stopTime 	114
scalar MyScenario.node[92].veinsmobility 	minSpeed 	2.4383636203362
scalar MyScenario.node[92].veinsmobility 	maxSpeed 	13.888662956608
scalar MyScenario.node[92].veinsmobility 	totalDistance 	1266.4112346299
scalar MyScenario.node[92].veinsmobility 	totalCO2Emission 	360.57962398703
scalar MyScenario.node[7].appl 	generatedWSMs 	1
scalar MyScenario.node[7].appl 	receivedWSMs 	18
scalar MyScenario.node[7].appl 	generatedBSMs 	0
scalar MyScenario.node[7].appl 	receivedBSMs 	0
scalar MyScenario.node[7].appl 	generatedWSAs 	0
scalar MyScenario.node[7].appl 	receivedWSAs 	0
scalar MyScenario.node[7].nic.phy80211p 	busyTime 	7.4643478260869e-05
scalar MyScenario.node[7].nic.mac1609_4 	ReceivedUnicastPackets 	0
scalar MyScenario.node[7].nic.mac1609_4 	ReceivedBroadcasts 	18
scalar MyScenario.node[7].nic.mac1609_4 	SentPackets 	1
scalar MyScenario.node[7].nic.mac1609_4 	SNIRLostPackets 	19
scalar MyScenario.node[7].nic.mac1609_4 	RXTXLostPackets 	2
scalar MyScenario.node[7].nic.mac1609_4 	TotalLostPackets 	21
scalar MyScenario.node[7].nic.mac1609_4 	DroppedPacketsInMac 	0
scalar MyScenario.node[7].nic.mac1609_4 	TooLittleTime 	0
scalar MyScenario.node[7].nic.mac1609_4 	TimesIntoBackoff 	1
scalar MyScenario.node[7].nic.mac1609_4 	SlotsBackoff 	0
scalar MyScenario.node[7].nic.mac1609_4 	NumInternalContention 	0
scalar MyScenario.node[7].nic.mac1609_4 	totalBusyTime 	0.005801
scalar MyScenario.node[7].veinsmobility 	startTime 	1
scalar MyScenario.node[7].veinsmobility 	totalTime 	114
scalar MyScenario.node[7].veinsmobility 	stopTime 	116
scalar MyScenario.node[7].veinsmobility 	minSpeed 	1.8474838130409
scalar MyScenario.node[7].veinsmobility 	maxSpeed 	13.874751234986
scalar MyScenario.node[7].veinsmobility 	totalDistance 	1353.7471737367
scalar MyScenario.node[7].veinsmobility 	totalCO2Emission 	358.96234690674
scalar MyScenario.node[43].appl 	generatedWSMs 	0
scalar MyScenario.node[43].appl 	receivedWSMs 	0
scalar MyScenario.node[43].appl 	generatedBSMs 	0
scalar MyScenario.node[43].appl 	receivedBSMs 	0
scalar MyScenario.node[43].appl 	generatedWSAs 	0
scalar MyScenario.node[43].appl 	receivedWSAs 	0
scalar MyScenario.node[43].nic.phy80211p 	busyTime 	1.2e-05
scalar MyScenario.node[43].nic.mac1609_4 	ReceivedUnicastPackets 	0
scalar MyScenario.node[43].nic.mac1609_4 	ReceivedBroadcasts 	0
scalar MyScenario.node[43].nic.mac1609_4 	SentPackets 	0
scalar MyScenario.node[43].nic.mac1609_4 	SNIRLostPackets 	6
scalar MyScenario.node[43].nic.mac1609_4 	RXTXLostPackets 	0
scalar MyScenario.node[43].nic.mac1609_4 	TotalLostPackets 	6
scalar MyScenario.node[43].nic.mac1609_4 	DroppedPacketsInMac 	0
scalar MyScenario.node[43].nic.mac1609_4 	TooLittleTime 	0
scalar MyScenario.node[43].nic.mac1609_4 	TimesIntoBackoff 	0
scalar MyScenario.node[43].nic.mac1609_4 	SlotsBackoff 	0
scalar MyScenario.node[43].nic.mac1609_4 	NumInternalContention 	0
scalar MyScenario.node[43].nic.mac1609_4 	totalBusyTime 	0.000464
scalar MyScenario.node[43].veinsmobility 	startTime 	1
scalar MyScenario.node[43].veinsmobility 	totalTime 	115
scalar MyScenario.node[43].veinsmobility 	stopTime 	117
scalar MyScenario.node[43].veinsmobility 	minSpeed 	1.3814456068445
scalar MyScenario.node[43].veinsmobility 	maxSpeed 	13.896724813175
scalar MyScenario.node[43].veinsmobility 	totalDistance 	1476.1951003153
scalar MyScenario.node[43].veinsmobility 	totalCO2Emission 	296.75253346445
scalar MyScenario.node[3].appl 	generatedWSMs 	0
scalar MyScenario.node[3].appl 	receivedWSMs 	0
scalar MyScenario.node[3].appl 	generatedBSMs 	0
scalar MyScenario.node[3].appl 	receivedBSMs 	0
scalar MyScenario.node[3].appl 	generatedWSAs 	0
scalar MyScenario.node[3].appl 	receivedWSAs 	0
scalar MyScenario.node[3].nic.phy80211p 	busyTime 	0
scalar MyScenario.node[3].nic.mac1609_4 	ReceivedUnicastPackets 	0
scalar MyScenario.node[3].nic.mac1609_4 	ReceivedBroadcasts 	0
scalar MyScenario.node[3].nic.mac1609_4 	SentPackets 	0
scalar MyScenario.node[3].nic.mac1609_4 	SNIRLostPackets 	0
scalar MyScenario.node[3].nic.mac1609_4 	RXTXLostPackets 	0
scalar MyScenario.node[3].nic.mac1609_4 	TotalLostPackets 	0
scalar MyScenario.node[3].nic.mac1609_4 	DroppedPacketsInMac 	0
scalar MyScenario.node[3].nic.mac1609_4 	TooLittleTime 	0
scalar MyScenario.node[3].nic.mac1609_4 	TimesIntoBackoff 	0
scalar MyScenario.node[3].nic.mac1609_4 	SlotsBackoff 	0
scalar MyScenario.node[3].nic.mac1609_4 	NumInternalContention 	0
scalar MyScenario.node[3].nic.mac1609_4 	totalBusyTime 	0
scalar MyScenario.node[3].veinsmobility 	startTime 	1
scalar MyScenario.node[3].veinsmobility 	totalTime 	118
scalar MyScenario.node[3].veinsmobility 	stopTime 	120
scalar MyScenario.node[3].veinsmobility 	minSpeed 	2.5457943856018
scalar MyScenario.node[3].veinsmobility 	maxSpeed 	13.88821885325
scalar MyScenario.node[3].veinsmobility 	totalDistance 	1359.701020395
scalar MyScenario.node[3].veinsmobility 	totalCO2Emission 	362.85087034581
scalar MyScenario.node[90].appl 	generatedWSMs 	1
scalar MyScenario.node[90].appl 	receivedWSMs 	2
scalar MyScenario.node[90].appl 	generatedBSMs 	0
scalar MyScenario.node[90].appl 	receivedBSMs 	0
scalar MyScenario.node[90].appl 	generatedWSAs 	0
scalar MyScenario.node[90].appl 	receivedWSAs 	0
scalar MyScenario.node[90].nic.phy80211p 	busyTime 	5.8983050847458e-06
scalar MyScenario.node[90].nic.mac1609_4 	ReceivedUnicastPackets 	0
scalar MyScenario.node[90].nic.mac1609_4 	ReceivedBroadcasts 	2
scalar MyScenario.node[90].nic.mac1609_4 	SentPackets 	1
scalar MyScenario.node[90].nic.mac1609_4 	SNIRLostPackets 	1
scalar MyScenario.node[90].nic.mac1609_4 	RXTXLostPackets 	5
scalar MyScenario.node[90].nic.mac1609_4 	TotalLostPackets 	6
scalar MyScenario.node[90].nic.mac1609_4 	DroppedPacketsInMac 	0
scalar MyScenario.node[90].nic.mac1609_4 	TooLittleTime 	0
scalar MyScenario.node[90].nic.mac1609_4 	TimesIntoBackoff 	1
scalar MyScenario.node[90].nic.mac1609_4 	SlotsBackoff 	0
scalar MyScenario.node[90].nic.mac1609_4 	NumInternalContention 	0
scalar MyScenario.node[90].nic.mac1609_4 	totalBusyTime 	0.000929
scalar MyScenario.node[90].veinsmobility 	startTime 	4
scalar MyScenario.node[90].veinsmobility 	totalTime 	117
scalar MyScenario.node[90].veinsmobility 	stopTime 	122
scalar MyScenario.node[90].veinsmobility 	minSpeed 	0.32202127222313
scalar MyScenario.node[90].veinsmobility 	maxSpeed 	13.860899041104
scalar MyScenario.node[90].veinsmobility 	totalDistance 	1162.0958122727
scalar MyScenario.node[90].veinsmobility 	totalCO2Emission 	398.59605311485
scalar MyScenario.node[67].appl 	generatedWSMs 	1
scalar MyScenario.node[67].appl 	receivedWSMs 	9
scalar MyScenario.node[67].appl 	generatedBSMs 	0
scalar MyScenario.node[67].appl 	receivedBSMs 	0
scalar MyScenario.node[67].appl 	generatedWSAs 	0
scalar MyScenario.node[67].appl 	receivedWSAs 	0
scalar MyScenario.node[67].nic.phy80211p 	busyTime 	2.4925619834711e-05
scalar MyScenario.node[67].nic.mac1609_4 	ReceivedUnicastPackets 	0
scalar MyScenario.node[67].nic.mac1609_4 	ReceivedBroadcasts 	9
scalar MyScenario.node[67].nic.mac1609_4 	SentPackets 	1
scalar MyScenario.node[67].nic.mac1609_4 	SNIRLostPackets 	4
scalar MyScenario.node[67].nic.mac1609_4 	RXTXLostPackets 	4
scalar MyScenario.node[67].nic.mac1609_4 	TotalLostPackets 	8
scalar MyScenario.node[67].nic.mac1609_4 	DroppedPacketsInMac 	0
scalar MyScenario.node[67].nic.mac1609_4 	TooLittleTime 	0
scalar MyScenario.node[67].nic.mac1609_4 	TimesIntoBackoff 	1
scalar MyScenario.node[67].nic.mac1609_4 	SlotsBackoff 	2
scalar MyScenario.node[67].nic.mac1609_4 	NumInternalContention 	0
scalar MyScenario.node[67].nic.mac1609_4 	totalBusyTime 	0.002785119205
scalar MyScenario.node[67].veinsmobility 	startTime 	1
scalar MyScenario.node[67].veinsmobility 	totalTime 	120
scalar MyScenario.node[67].veinsmobility 	stopTime 	122
scalar MyScenario.node[67].veinsmobility 	minSpeed 	1.8089842980495
scalar MyScenario.node[67].veinsmobility 	maxSpeed 	13.86959260169
scalar MyScenario.node[67].veinsmobility 	totalDistance 	1370.5254599378
scalar MyScenario.node[67].veinsmobility 	totalCO2Emission 	409.0738129333
scalar MyScenario.node[19].appl 	generatedWSMs 	1
scalar MyScenario.node[19].appl 	receivedWSMs 	10
scalar MyScenario.node[19].appl 	generatedBSMs 	0
scalar MyScenario.node[19].appl 	receivedBSMs 	0
scalar MyScenario.node[19].appl 	generatedWSAs 	0
scalar MyScenario.node[19].appl 	receivedWSAs 	0
scalar MyScenario.node[19].nic.phy80211p 	busyTime 	3.4984126984127e-05
scalar MyScenario.node[19].nic.mac1609_4 	ReceivedUnicastPackets 	0
scalar MyScenario.node[19].nic.mac1609_4 	ReceivedBroadcasts 	10
scalar MyScenario.node[19].nic.mac1609_4 	SentPackets 	1
scalar MyScenario.node[19].nic.mac1609_4 	SNIRLostPackets 	9
scalar MyScenario.node[19].nic.mac1609_4 	RXTXLostPackets 	6
scalar MyScenario.node[19].nic.mac1609_4 	TotalLostPackets 	15
scalar MyScenario.node[19].nic.mac1609_4 	DroppedPacketsInMac 	0
scalar MyScenario.node[19].nic.mac1609_4 	TooLittleTime 	0
scalar MyScenario.node[19].nic.mac1609_4 	TimesIntoBackoff 	1
scalar MyScenario.node[19].nic.mac1609_4 	SlotsBackoff 	3
scalar MyScenario.node[19].nic.mac1609_4 	NumInternalContention 	0
scalar MyScenario.node[19].nic.mac1609_4 	totalBusyTime 	0.003481069081
scalar MyScenario.node[19].veinsmobility 	startTime 	1
scalar MyScenario.node[19].veinsmobility 	totalTime 	125
scalar MyScenario.node[19].veinsmobility 	stopTime 	127
scalar MyScenario.node[19].veinsmobility 	minSpeed 	2.0757668058854
scalar MyScenario.node[19].veinsmobility 	maxSpeed 	13.898403043323
scalar MyScenario.node[19].veinsmobility 	totalDistance 	1570.7998939759
scalar MyScenario.node[19].veinsmobility 	totalCO2Emission 	339.94259259571
scalar MyScenario.node[51].appl 	generatedWSMs 	1
scalar MyScenario.node[51].appl 	receivedWSMs 	9
scalar MyScenario.node[51].appl 	generatedBSMs 	0
scalar MyScenario.node[51].appl 	receivedBSMs 	0
scalar MyScenario.node[51].appl 	generatedWSAs 	0
scalar MyScenario.node[51].appl 	receivedWSAs 	0
scalar MyScenario.node[51].nic.phy80211p 	busyTime 	4.6031746031746e-05
scalar MyScenario.node[51].nic.mac1609_4 	ReceivedUnicastPackets 	0
scalar MyScenario.node[51].nic.mac1609_4 	ReceivedBroadcasts 	9
scalar MyScenario.node[51].nic.mac1609_4 	SentPackets 	1
scalar MyScenario.node[51].nic.mac1609_4 	SNIRLostPackets 	16
scalar MyScenario.node[51].nic.mac1609_4 	RXTXLostPackets 	0
scalar MyScenario.node[51].nic.mac1609_4 	TotalLostPackets 	16
scalar MyScenario.node[51].nic.mac1609_4 	DroppedPacketsInMac 	0
scalar MyScenario.node[51].nic.mac1609_4 	TooLittleTime 	0
scalar MyScenario.node[51].nic.mac1609_4 	TimesIntoBackoff 	1
scalar MyScenario.node[51].nic.mac1609_4 	SlotsBackoff 	0
scalar MyScenario.node[51].nic.mac1609_4 	NumInternalContention 	0
scalar MyScenario.node[51].nic.mac1609_4 	totalBusyTime 	0.003249
scalar MyScenario.node[51].veinsmobility 	startTime 	1
scalar MyScenario.node[51].veinsmobility 	totalTime 	125
scalar MyScenario.node[51].veinsmobility 	stopTime 	127
scalar MyScenario.node[51].veinsmobility 	minSpeed 	5.709408958568e-05
scalar MyScenario.node[51].veinsmobility 	maxSpeed 	13.889317879197
scalar MyScenario.node[51].veinsmobility 	totalDistance 	1260.8861277786
scalar MyScenario.node[51].veinsmobility 	totalCO2Emission 	405.27777275023
scalar MyScenario.node[72].appl 	generatedWSMs 	1
scalar MyScenario.node[72].appl 	receivedWSMs 	9
scalar MyScenario.node[72].appl 	generatedBSMs 	0
scalar MyScenario.node[72].appl 	receivedBSMs 	0
scalar MyScenario.node[72].appl 	generatedWSAs 	0
scalar MyScenario.node[72].appl 	receivedWSAs 	0
scalar MyScenario.node[72].nic.phy80211p 	busyTime 	2.35625e-05
scalar MyScenario.node[72].nic.mac1609_4 	ReceivedUnicastPackets 	0
scalar MyScenario.node[72].nic.mac1609_4 	ReceivedBroadcasts 	9
scalar MyScenario.node[72].nic.mac1609_4 	SentPackets 	1
scalar MyScenario.node[72].nic.mac1609_4 	SNIRLostPackets 	4
scalar MyScenario.node[72].nic.mac1609_4 	RXTXLostPackets 	4
scalar MyScenario.node[72].nic.mac1609_4 	TotalLostPackets 	8
scalar MyScenario.node[72].nic.mac1609_4 	DroppedPacketsInMac 	0
scalar MyScenario.node[72].nic.mac1609_4 	TooLittleTime 	0
scalar MyScenario.node[72].nic.mac1609_4 	TimesIntoBackoff 	1
scalar MyScenario.node[72].nic.mac1609_4 	SlotsBackoff 	2
scalar MyScenario.node[72].nic.mac1609_4 	NumInternalContention 	0
scalar MyScenario.node[72].nic.mac1609_4 	totalBusyTime 	0.003249110603
scalar MyScenario.node[72].veinsmobility 	startTime 	1
scalar MyScenario.node[72].veinsmobility 	totalTime 	127
scalar MyScenario.node[72].veinsmobility 	stopTime 	129
scalar MyScenario.node[72].veinsmobility 	minSpeed 	1.727297744737
scalar MyScenario.node[72].veinsmobility 	maxSpeed 	13.876280450705
scalar MyScenario.node[72].veinsmobility 	totalDistance 	1361.8752990077
scalar MyScenario.node[72].veinsmobility 	totalCO2Emission 	412.98016419644
scalar MyScenario.node[96].appl 	generatedWSMs 	0
scalar MyScenario.node[96].appl 	receivedWSMs 	0
scalar MyScenario.node[96].appl 	generatedBSMs 	0
scalar MyScenario.node[96].appl 	receivedBSMs 	0
scalar MyScenario.node[96].appl 	generatedWSAs 	0
scalar MyScenario.node[96].appl 	receivedWSAs 	0
scalar MyScenario.node[96].nic.phy80211p 	busyTime 	3.6825396825397e-06
scalar MyScenario.node[96].nic.mac1609_4 	ReceivedUnicastPackets 	0
scalar MyScenario.node[96].nic.mac1609_4 	ReceivedBroadcasts 	0
scalar MyScenario.node[96].nic.mac1609_4 	SentPackets 	0
scalar MyScenario.node[96].nic.mac1609_4 	SNIRLostPackets 	2
scalar MyScenario.node[96].nic.mac1609_4 	RXTXLostPackets 	0
scalar MyScenario.node[96].nic.mac1609_4 	TotalLostPackets 	2
scalar MyScenario.node[96].nic.mac1609_4 	DroppedPacketsInMac 	0
scalar MyScenario.node[96].nic.mac1609_4 	TooLittleTime 	0
scalar MyScenario.node[96].nic.mac1609_4 	TimesIntoBackoff 	0
scalar MyScenario.node[96].nic.mac1609_4 	SlotsBackoff 	0
scalar MyScenario.node[96].nic.mac1609_4 	NumInternalContention 	0
scalar MyScenario.node[96].nic.mac1609_4 	totalBusyTime 	0.000232
scalar MyScenario.node[96].veinsmobility 	startTime 	4
scalar MyScenario.node[96].veinsmobility 	totalTime 	125
scalar MyScenario.node[96].veinsmobility 	stopTime 	130
scalar MyScenario.node[96].veinsmobility 	minSpeed 	1.6878747172421
scalar MyScenario.node[96].veinsmobility 	maxSpeed 	13.884450333402
scalar MyScenario.node[96].veinsmobility 	totalDistance 	1570.8029327518
scalar MyScenario.node[96].veinsmobility 	totalCO2Emission 	326.66382371203
scalar MyScenario.node[68].appl 	generatedWSMs 	1
scalar MyScenario.node[68].appl 	receivedWSMs 	6
scalar MyScenario.node[68].appl 	generatedBSMs 	0
scalar MyScenario.node[68].appl 	receivedBSMs 	0
scalar MyScenario.node[68].appl 	generatedWSAs 	0
scalar MyScenario.node[68].appl 	receivedWSAs 	0
scalar MyScenario.node[68].nic.phy80211p 	busyTime 	2.8553846153846e-05
scalar MyScenario.node[68].nic.mac1609_4 	ReceivedUnicastPackets 	0
scalar MyScenario.node[68].nic.mac1609_4 	ReceivedBroadcasts 	6
scalar MyScenario.node[68].nic.mac1609_4 	SentPackets 	1
scalar MyScenario.node[68].nic.mac1609_4 	SNIRLostPackets 	10
scalar MyScenario.node[68].nic.mac1609_4 	RXTXLostPackets 	1
scalar MyScenario.node[68].nic.mac1609_4 	TotalLostPackets 	11
scalar MyScenario.node[68].nic.mac1609_4 	DroppedPacketsInMac 	0
scalar MyScenario.node[68].nic.mac1609_4 	TooLittleTime 	0
scalar MyScenario.node[68].nic.mac1609_4 	TimesIntoBackoff 	1
scalar MyScenario.node[68].nic.mac1609_4 	SlotsBackoff 	3
scalar MyScenario.node[68].nic.mac1609_4 	NumInternalContention 	0
scalar MyScenario.node[68].nic.mac1609_4 	totalBusyTime 	0.002553
scalar MyScenario.node[68].veinsmobility 	startTime 	1
scalar MyScenario.node[68].veinsmobility 	totalTime 	129
scalar MyScenario.node[68].veinsmobility 	stopTime 	131
scalar MyScenario.node[68].veinsmobility 	minSpeed 	1.6433532631025
scalar MyScenario.node[68].veinsmobility 	maxSpeed 	13.87468633377
scalar MyScenario.node[68].veinsmobility 	totalDistance 	1548.7827087836
scalar MyScenario.node[68].veinsmobility 	totalCO2Emission 	406.88443425859
scalar MyScenario.node[74].appl 	generatedWSMs 	1
scalar MyScenario.node[74].appl 	receivedWSMs 	1
scalar MyScenario.node[74].appl 	generatedBSMs 	0
scalar MyScenario.node[74].appl 	receivedBSMs 	0
scalar MyScenario.node[74].appl 	generatedWSAs 	0
scalar MyScenario.node[74].appl 	receivedWSAs 	0
scalar MyScenario.node[74].nic.phy80211p 	busyTime 	1.16e-05
scalar MyScenario.node[74].nic.mac1609_4 	ReceivedUnicastPackets 	0
scalar MyScenario.node[74].nic.mac1609_4 	ReceivedBroadcasts 	1
scalar MyScenario.node[74].nic.mac1609_4 	SentPackets 	1
scalar MyScenario.node[74].nic.mac1609_4 	SNIRLostPackets 	6
scalar MyScenario.node[74].nic.mac1609_4 	RXTXLostPackets 	0
scalar MyScenario.node[74].nic.mac1609_4 	TotalLostPackets 	6
scalar MyScenario.node[74].nic.mac1609_4 	DroppedPacketsInMac 	0
scalar MyScenario.node[74].nic.mac1609_4 	TooLittleTime 	0
scalar MyScenario.node[74].nic.mac1609_4 	TimesIntoBackoff 	1
scalar MyScenario.node[74].nic.mac1609_4 	SlotsBackoff 	2
scalar MyScenario.node[74].nic.mac1609_4 	NumInternalContention 	0
scalar MyScenario.node[74].nic.mac1609_4 	totalBusyTime 	0.000929
scalar MyScenario.node[74].veinsmobility 	startTime 	1
scalar MyScenario.node[74].veinsmobility 	totalTime 	139
scalar MyScenario.node[74].veinsmobility 	stopTime 	141
scalar MyScenario.node[74].veinsmobility 	minSpeed 	0.50724496854651
scalar MyScenario.node[74].veinsmobility 	maxSpeed 	13.888753412175
scalar MyScenario.node[74].veinsmobility 	totalDistance 	1569.1424365705
scalar MyScenario.node[74].veinsmobility 	totalCO2Emission 	466.86365063828
