version 2
run General-28-20170829-17:44:13-8100
attr configname General
attr datetime 20170829-17:44:13
attr density 300
attr experiment General
attr inifile omnetpp.ini
attr iterationvars $density=300
attr iterationvars2 "$density=300, $repetition=8"
attr measurement $density=300
attr network com.liborio.pi.MyScenario
attr processid 8100
attr repetition 8
attr replication #8
attr resultdir results
attr runnumber 28
attr seedset 8
param **.coreDebug false
param **.debug false
param *.**.nic.mac1609_4.bitrate 6Mbps
param *.**.nic.mac1609_4.txPower 20mW
param *.**.nic.mac1609_4.useServiceChannel true
param *.**.nic.phy80211p.analogueModels "xmldoc(\"config.xml\")"
param *.**.nic.phy80211p.antenna "xmldoc(\"antenna.xml\", \"/root/Antenna[@id='monopole']\")"
param *.**.nic.phy80211p.decider "xmldoc(\"config.xml\")"
param *.**.nic.phy80211p.sensitivity -84.39dBm
param *.**.nic.phy80211p.thermalNoise -110dBm
param *.**.nic.phy80211p.usePropagationDelay true
param *.**.nic.phy80211p.useThermalNoise true
param *.annotations.draw true
param *.connectionManager.drawMaxIntfDist false
param *.connectionManager.maxInterfDist 2600m
param *.connectionManager.sendDirect true
param *.manager.autoShutdown true
param *.manager.host "\"localhost\""
param *.manager.launchConfig "xmldoc(string(${density = 100, 200, 300, 400})+\"_\"+ string(${repetition})+\".launchd.xml\")"
param *.manager.port 9999
param *.manager.updateInterval 1s
param *.node[*].appl.beaconInterval 1s
param *.node[*].appl.dataOnSch true
param *.node[*].appl.headerLength "80 bit"
param *.node[*].appl.isSource false
param *.node[*].appl.numMsgs 100
param *.node[*].appl.sendBeacons false
param *.node[*].appl.stopTrafficTime 130s
param *.node[*].appl.wsmInterval 3s
param *.node[*].applType "\"Flooding\""
param *.node[*].veinsmobility.x 0
param *.node[*].veinsmobility.y 0
param *.node[*].veinsmobility.z 1.895
param *.node[*].veinsmobilityType.debug true
param *.node[0].appl.isSource true
param *.playgroundSizeX 2500m
param *.playgroundSizeY 2500m
param *.playgroundSizeZ 50m

scalar . 	density 	300
scalar MyScenario.node[101].appl 	generatedWSMs 	0
scalar MyScenario.node[101].appl 	receivedWSMs 	0
scalar MyScenario.node[101].appl 	generatedBSMs 	0
scalar MyScenario.node[101].appl 	receivedBSMs 	0
scalar MyScenario.node[101].appl 	generatedWSAs 	0
scalar MyScenario.node[101].appl 	receivedWSAs 	0
scalar MyScenario.node[101].nic.phy80211p 	busyTime 	0
scalar MyScenario.node[101].nic.mac1609_4 	ReceivedUnicastPackets 	0
scalar MyScenario.node[101].nic.mac1609_4 	ReceivedBroadcasts 	0
scalar MyScenario.node[101].nic.mac1609_4 	SentPackets 	0
scalar MyScenario.node[101].nic.mac1609_4 	SNIRLostPackets 	0
scalar MyScenario.node[101].nic.mac1609_4 	RXTXLostPackets 	0
scalar MyScenario.node[101].nic.mac1609_4 	TotalLostPackets 	0
scalar MyScenario.node[101].nic.mac1609_4 	DroppedPacketsInMac 	0
scalar MyScenario.node[101].nic.mac1609_4 	TooLittleTime 	0
scalar MyScenario.node[101].nic.mac1609_4 	TimesIntoBackoff 	0
scalar MyScenario.node[101].nic.mac1609_4 	SlotsBackoff 	0
scalar MyScenario.node[101].nic.mac1609_4 	NumInternalContention 	0
scalar MyScenario.node[101].nic.mac1609_4 	totalBusyTime 	0
scalar MyScenario.node[101].veinsmobility 	startTime 	1
scalar MyScenario.node[101].veinsmobility 	totalTime 	9
scalar MyScenario.node[101].veinsmobility 	stopTime 	11
scalar MyScenario.node[101].veinsmobility 	minSpeed 	1.9616085587069
scalar MyScenario.node[101].veinsmobility 	maxSpeed 	13.853802257706
scalar MyScenario.node[101].veinsmobility 	totalDistance 	83.156518213777
scalar MyScenario.node[101].veinsmobility 	totalCO2Emission 	38.386937516396
scalar MyScenario.node[129].appl 	generatedWSMs 	0
scalar MyScenario.node[129].appl 	receivedWSMs 	0
scalar MyScenario.node[129].appl 	generatedBSMs 	0
scalar MyScenario.node[129].appl 	receivedBSMs 	0
scalar MyScenario.node[129].appl 	generatedWSAs 	0
scalar MyScenario.node[129].appl 	receivedWSAs 	0
scalar MyScenario.node[129].nic.phy80211p 	busyTime 	6.96e-05
scalar MyScenario.node[129].nic.mac1609_4 	ReceivedUnicastPackets 	0
scalar MyScenario.node[129].nic.mac1609_4 	ReceivedBroadcasts 	0
scalar MyScenario.node[129].nic.mac1609_4 	SentPackets 	0
scalar MyScenario.node[129].nic.mac1609_4 	SNIRLostPackets 	3
scalar MyScenario.node[129].nic.mac1609_4 	RXTXLostPackets 	0
scalar MyScenario.node[129].nic.mac1609_4 	TotalLostPackets 	3
scalar MyScenario.node[129].nic.mac1609_4 	DroppedPacketsInMac 	0
scalar MyScenario.node[129].nic.mac1609_4 	TooLittleTime 	0
scalar MyScenario.node[129].nic.mac1609_4 	TimesIntoBackoff 	0
scalar MyScenario.node[129].nic.mac1609_4 	SlotsBackoff 	0
scalar MyScenario.node[129].nic.mac1609_4 	NumInternalContention 	0
scalar MyScenario.node[129].nic.mac1609_4 	totalBusyTime 	0.000464
scalar MyScenario.node[129].veinsmobility 	startTime 	1
scalar MyScenario.node[129].veinsmobility 	totalTime 	9
scalar MyScenario.node[129].veinsmobility 	stopTime 	11
scalar MyScenario.node[129].veinsmobility 	minSpeed 	2.1995516042691
scalar MyScenario.node[129].veinsmobility 	maxSpeed 	13.215462535922
scalar MyScenario.node[129].veinsmobility 	totalDistance 	81.460077919881
scalar MyScenario.node[129].veinsmobility 	totalCO2Emission 	35.783520266825
scalar MyScenario.node[166].appl 	generatedWSMs 	0
scalar MyScenario.node[166].appl 	receivedWSMs 	0
scalar MyScenario.node[166].appl 	generatedBSMs 	0
scalar MyScenario.node[166].appl 	receivedBSMs 	0
scalar MyScenario.node[166].appl 	generatedWSAs 	0
scalar MyScenario.node[166].appl 	receivedWSAs 	0
scalar MyScenario.node[166].nic.phy80211p 	busyTime 	0.0002088
scalar MyScenario.node[166].nic.mac1609_4 	ReceivedUnicastPackets 	0
scalar MyScenario.node[166].nic.mac1609_4 	ReceivedBroadcasts 	0
scalar MyScenario.node[166].nic.mac1609_4 	SentPackets 	0
scalar MyScenario.node[166].nic.mac1609_4 	SNIRLostPackets 	9
scalar MyScenario.node[166].nic.mac1609_4 	RXTXLostPackets 	0
scalar MyScenario.node[166].nic.mac1609_4 	TotalLostPackets 	9
scalar MyScenario.node[166].nic.mac1609_4 	DroppedPacketsInMac 	0
scalar MyScenario.node[166].nic.mac1609_4 	TooLittleTime 	0
scalar MyScenario.node[166].nic.mac1609_4 	TimesIntoBackoff 	0
scalar MyScenario.node[166].nic.mac1609_4 	SlotsBackoff 	0
scalar MyScenario.node[166].nic.mac1609_4 	NumInternalContention 	0
scalar MyScenario.node[166].nic.mac1609_4 	totalBusyTime 	0.000696
scalar MyScenario.node[166].veinsmobility 	startTime 	1
scalar MyScenario.node[166].veinsmobility 	totalTime 	9
scalar MyScenario.node[166].veinsmobility 	stopTime 	11
scalar MyScenario.node[166].veinsmobility 	minSpeed 	2.3894979293225
scalar MyScenario.node[166].veinsmobility 	maxSpeed 	13.133449996426
scalar MyScenario.node[166].veinsmobility 	totalDistance 	86.38166771899
scalar MyScenario.node[166].veinsmobility 	totalCO2Emission 	35.96160835115
scalar MyScenario.node[188].appl 	generatedWSMs 	0
scalar MyScenario.node[188].appl 	receivedWSMs 	0
scalar MyScenario.node[188].appl 	generatedBSMs 	0
scalar MyScenario.node[188].appl 	receivedBSMs 	0
scalar MyScenario.node[188].appl 	generatedWSAs 	0
scalar MyScenario.node[188].appl 	receivedWSAs 	0
scalar MyScenario.node[188].nic.phy80211p 	busyTime 	0
scalar MyScenario.node[188].nic.mac1609_4 	ReceivedUnicastPackets 	0
scalar MyScenario.node[188].nic.mac1609_4 	ReceivedBroadcasts 	0
scalar MyScenario.node[188].nic.mac1609_4 	SentPackets 	0
scalar MyScenario.node[188].nic.mac1609_4 	SNIRLostPackets 	0
scalar MyScenario.node[188].nic.mac1609_4 	RXTXLostPackets 	0
scalar MyScenario.node[188].nic.mac1609_4 	TotalLostPackets 	0
scalar MyScenario.node[188].nic.mac1609_4 	DroppedPacketsInMac 	0
scalar MyScenario.node[188].nic.mac1609_4 	TooLittleTime 	0
scalar MyScenario.node[188].nic.mac1609_4 	TimesIntoBackoff 	0
scalar MyScenario.node[188].nic.mac1609_4 	SlotsBackoff 	0
scalar MyScenario.node[188].nic.mac1609_4 	NumInternalContention 	0
scalar MyScenario.node[188].nic.mac1609_4 	totalBusyTime 	0
scalar MyScenario.node[188].veinsmobility 	startTime 	1
scalar MyScenario.node[188].veinsmobility 	totalTime 	10
scalar MyScenario.node[188].veinsmobility 	stopTime 	12
scalar MyScenario.node[188].veinsmobility 	minSpeed 	1.4927386694355
scalar MyScenario.node[188].veinsmobility 	maxSpeed 	13.710502370261
scalar MyScenario.node[188].veinsmobility 	totalDistance 	88.879751920471
scalar MyScenario.node[188].veinsmobility 	totalCO2Emission 	39.653807110674
scalar MyScenario.node[90].appl 	generatedWSMs 	0
scalar MyScenario.node[90].appl 	receivedWSMs 	0
scalar MyScenario.node[90].appl 	generatedBSMs 	0
scalar MyScenario.node[90].appl 	receivedBSMs 	0
scalar MyScenario.node[90].appl 	generatedWSAs 	0
scalar MyScenario.node[90].appl 	receivedWSAs 	0
scalar MyScenario.node[90].nic.phy80211p 	busyTime 	0
scalar MyScenario.node[90].nic.mac1609_4 	ReceivedUnicastPackets 	0
scalar MyScenario.node[90].nic.mac1609_4 	ReceivedBroadcasts 	0
scalar MyScenario.node[90].nic.mac1609_4 	SentPackets 	0
scalar MyScenario.node[90].nic.mac1609_4 	SNIRLostPackets 	0
scalar MyScenario.node[90].nic.mac1609_4 	RXTXLostPackets 	0
scalar MyScenario.node[90].nic.mac1609_4 	TotalLostPackets 	0
scalar MyScenario.node[90].nic.mac1609_4 	DroppedPacketsInMac 	0
scalar MyScenario.node[90].nic.mac1609_4 	TooLittleTime 	0
scalar MyScenario.node[90].nic.mac1609_4 	TimesIntoBackoff 	0
scalar MyScenario.node[90].nic.mac1609_4 	SlotsBackoff 	0
scalar MyScenario.node[90].nic.mac1609_4 	NumInternalContention 	0
scalar MyScenario.node[90].nic.mac1609_4 	totalBusyTime 	0
scalar MyScenario.node[90].veinsmobility 	startTime 	1
scalar MyScenario.node[90].veinsmobility 	totalTime 	10
scalar MyScenario.node[90].veinsmobility 	stopTime 	12
scalar MyScenario.node[90].veinsmobility 	minSpeed 	2.2298484675353
scalar MyScenario.node[90].veinsmobility 	maxSpeed 	13.599473238736
scalar MyScenario.node[90].veinsmobility 	totalDistance 	93.539875669212
scalar MyScenario.node[90].veinsmobility 	totalCO2Emission 	38.725806673259
scalar MyScenario.node[215].appl 	generatedWSMs 	0
scalar MyScenario.node[215].appl 	receivedWSMs 	0
scalar MyScenario.node[215].appl 	generatedBSMs 	0
scalar MyScenario.node[215].appl 	receivedBSMs 	0
scalar MyScenario.node[215].appl 	generatedWSAs 	0
scalar MyScenario.node[215].appl 	receivedWSAs 	0
scalar MyScenario.node[215].nic.phy80211p 	busyTime 	4.64e-05
scalar MyScenario.node[215].nic.mac1609_4 	ReceivedUnicastPackets 	0
scalar MyScenario.node[215].nic.mac1609_4 	ReceivedBroadcasts 	0
scalar MyScenario.node[215].nic.mac1609_4 	SentPackets 	0
scalar MyScenario.node[215].nic.mac1609_4 	SNIRLostPackets 	2
scalar MyScenario.node[215].nic.mac1609_4 	RXTXLostPackets 	0
scalar MyScenario.node[215].nic.mac1609_4 	TotalLostPackets 	2
scalar MyScenario.node[215].nic.mac1609_4 	DroppedPacketsInMac 	0
scalar MyScenario.node[215].nic.mac1609_4 	TooLittleTime 	0
scalar MyScenario.node[215].nic.mac1609_4 	TimesIntoBackoff 	0
scalar MyScenario.node[215].nic.mac1609_4 	SlotsBackoff 	0
scalar MyScenario.node[215].nic.mac1609_4 	NumInternalContention 	0
scalar MyScenario.node[215].nic.mac1609_4 	totalBusyTime 	0.000232
scalar MyScenario.node[215].veinsmobility 	startTime 	4
scalar MyScenario.node[215].veinsmobility 	totalTime 	9
scalar MyScenario.node[215].veinsmobility 	stopTime 	14
scalar MyScenario.node[215].veinsmobility 	minSpeed 	2.3813240448944
scalar MyScenario.node[215].veinsmobility 	maxSpeed 	13.514042861527
scalar MyScenario.node[215].veinsmobility 	totalDistance 	85.891448000237
scalar MyScenario.node[215].veinsmobility 	totalCO2Emission 	40.189898377324
scalar MyScenario.node[214].appl 	generatedWSMs 	0
scalar MyScenario.node[214].appl 	receivedWSMs 	0
scalar MyScenario.node[214].appl 	generatedBSMs 	0
scalar MyScenario.node[214].appl 	receivedBSMs 	0
scalar MyScenario.node[214].appl 	generatedWSAs 	0
scalar MyScenario.node[214].appl 	receivedWSAs 	0
scalar MyScenario.node[214].nic.phy80211p 	busyTime 	0
scalar MyScenario.node[214].nic.mac1609_4 	ReceivedUnicastPackets 	0
scalar MyScenario.node[214].nic.mac1609_4 	ReceivedBroadcasts 	0
scalar MyScenario.node[214].nic.mac1609_4 	SentPackets 	0
scalar MyScenario.node[214].nic.mac1609_4 	SNIRLostPackets 	0
scalar MyScenario.node[214].nic.mac1609_4 	RXTXLostPackets 	0
scalar MyScenario.node[214].nic.mac1609_4 	TotalLostPackets 	0
scalar MyScenario.node[214].nic.mac1609_4 	DroppedPacketsInMac 	0
scalar MyScenario.node[214].nic.mac1609_4 	TooLittleTime 	0
scalar MyScenario.node[214].nic.mac1609_4 	TimesIntoBackoff 	0
scalar MyScenario.node[214].nic.mac1609_4 	SlotsBackoff 	0
scalar MyScenario.node[214].nic.mac1609_4 	NumInternalContention 	0
scalar MyScenario.node[214].nic.mac1609_4 	totalBusyTime 	0
scalar MyScenario.node[214].veinsmobility 	startTime 	4
scalar MyScenario.node[214].veinsmobility 	totalTime 	16
scalar MyScenario.node[214].veinsmobility 	stopTime 	21
scalar MyScenario.node[214].veinsmobility 	minSpeed 	2.3232921293704
scalar MyScenario.node[214].veinsmobility 	maxSpeed 	13.655954845692
scalar MyScenario.node[214].veinsmobility 	totalDistance 	173.07136521102
scalar MyScenario.node[214].veinsmobility 	totalCO2Emission 	52.859930013557
scalar MyScenario.node[147].appl 	generatedWSMs 	1
scalar MyScenario.node[147].appl 	receivedWSMs 	7
scalar MyScenario.node[147].appl 	generatedBSMs 	0
scalar MyScenario.node[147].appl 	receivedBSMs 	0
scalar MyScenario.node[147].appl 	generatedWSAs 	0
scalar MyScenario.node[147].appl 	receivedWSAs 	0
scalar MyScenario.node[147].nic.phy80211p 	busyTime 	0.00029
scalar MyScenario.node[147].nic.mac1609_4 	ReceivedUnicastPackets 	0
scalar MyScenario.node[147].nic.mac1609_4 	ReceivedBroadcasts 	7
scalar MyScenario.node[147].nic.mac1609_4 	SentPackets 	1
scalar MyScenario.node[147].nic.mac1609_4 	SNIRLostPackets 	23
scalar MyScenario.node[147].nic.mac1609_4 	RXTXLostPackets 	18
scalar MyScenario.node[147].nic.mac1609_4 	TotalLostPackets 	41
scalar MyScenario.node[147].nic.mac1609_4 	DroppedPacketsInMac 	0
scalar MyScenario.node[147].nic.mac1609_4 	TooLittleTime 	0
scalar MyScenario.node[147].nic.mac1609_4 	TimesIntoBackoff 	1
scalar MyScenario.node[147].nic.mac1609_4 	SlotsBackoff 	2
scalar MyScenario.node[147].nic.mac1609_4 	NumInternalContention 	0
scalar MyScenario.node[147].nic.mac1609_4 	totalBusyTime 	0.00324918268
scalar MyScenario.node[147].veinsmobility 	startTime 	1
scalar MyScenario.node[147].veinsmobility 	totalTime 	23
scalar MyScenario.node[147].veinsmobility 	stopTime 	25
scalar MyScenario.node[147].veinsmobility 	minSpeed 	2.0736527655041
scalar MyScenario.node[147].veinsmobility 	maxSpeed 	13.72875280818
scalar MyScenario.node[147].veinsmobility 	totalDistance 	272.40043191696
scalar MyScenario.node[147].veinsmobility 	totalCO2Emission 	72.981805688394
scalar MyScenario.node[141].appl 	generatedWSMs 	1
scalar MyScenario.node[141].appl 	receivedWSMs 	9
scalar MyScenario.node[141].appl 	generatedBSMs 	0
scalar MyScenario.node[141].appl 	receivedBSMs 	0
scalar MyScenario.node[141].appl 	generatedWSAs 	0
scalar MyScenario.node[141].appl 	receivedWSAs 	0
scalar MyScenario.node[141].nic.phy80211p 	busyTime 	0.00021542857142857
scalar MyScenario.node[141].nic.mac1609_4 	ReceivedUnicastPackets 	0
scalar MyScenario.node[141].nic.mac1609_4 	ReceivedBroadcasts 	9
scalar MyScenario.node[141].nic.mac1609_4 	SentPackets 	1
scalar MyScenario.node[141].nic.mac1609_4 	SNIRLostPackets 	17
scalar MyScenario.node[141].nic.mac1609_4 	RXTXLostPackets 	4
scalar MyScenario.node[141].nic.mac1609_4 	TotalLostPackets 	21
scalar MyScenario.node[141].nic.mac1609_4 	DroppedPacketsInMac 	0
scalar MyScenario.node[141].nic.mac1609_4 	TooLittleTime 	0
scalar MyScenario.node[141].nic.mac1609_4 	TimesIntoBackoff 	1
scalar MyScenario.node[141].nic.mac1609_4 	SlotsBackoff 	3
scalar MyScenario.node[141].nic.mac1609_4 	NumInternalContention 	0
scalar MyScenario.node[141].nic.mac1609_4 	totalBusyTime 	0.003713
scalar MyScenario.node[141].veinsmobility 	startTime 	1
scalar MyScenario.node[141].veinsmobility 	totalTime 	27
scalar MyScenario.node[141].veinsmobility 	stopTime 	29
scalar MyScenario.node[141].veinsmobility 	minSpeed 	2.0831299236277
scalar MyScenario.node[141].veinsmobility 	maxSpeed 	13.887014254089
scalar MyScenario.node[141].veinsmobility 	totalDistance 	275.64590794328
scalar MyScenario.node[141].veinsmobility 	totalCO2Emission 	92.879663326604
scalar MyScenario.node[270].appl 	generatedWSMs 	1
scalar MyScenario.node[270].appl 	receivedWSMs 	6
scalar MyScenario.node[270].appl 	generatedBSMs 	0
scalar MyScenario.node[270].appl 	receivedBSMs 	0
scalar MyScenario.node[270].appl 	generatedWSAs 	0
scalar MyScenario.node[270].appl 	receivedWSAs 	0
scalar MyScenario.node[270].nic.phy80211p 	busyTime 	0.00030624
scalar MyScenario.node[270].nic.mac1609_4 	ReceivedUnicastPackets 	0
scalar MyScenario.node[270].nic.mac1609_4 	ReceivedBroadcasts 	6
scalar MyScenario.node[270].nic.mac1609_4 	SentPackets 	1
scalar MyScenario.node[270].nic.mac1609_4 	SNIRLostPackets 	27
scalar MyScenario.node[270].nic.mac1609_4 	RXTXLostPackets 	2
scalar MyScenario.node[270].nic.mac1609_4 	TotalLostPackets 	29
scalar MyScenario.node[270].nic.mac1609_4 	DroppedPacketsInMac 	0
scalar MyScenario.node[270].nic.mac1609_4 	TooLittleTime 	0
scalar MyScenario.node[270].nic.mac1609_4 	TimesIntoBackoff 	1
scalar MyScenario.node[270].nic.mac1609_4 	SlotsBackoff 	1
scalar MyScenario.node[270].nic.mac1609_4 	NumInternalContention 	0
scalar MyScenario.node[270].nic.mac1609_4 	totalBusyTime 	0.002553144814
scalar MyScenario.node[270].veinsmobility 	startTime 	4
scalar MyScenario.node[270].veinsmobility 	totalTime 	24
scalar MyScenario.node[270].veinsmobility 	stopTime 	29
scalar MyScenario.node[270].veinsmobility 	minSpeed 	1.3591573469574
scalar MyScenario.node[270].veinsmobility 	maxSpeed 	13.847407308035
scalar MyScenario.node[270].veinsmobility 	totalDistance 	260.92829965632
scalar MyScenario.node[270].veinsmobility 	totalCO2Emission 	84.477922655883
scalar MyScenario.node[263].appl 	generatedWSMs 	0
scalar MyScenario.node[263].appl 	receivedWSMs 	0
scalar MyScenario.node[263].appl 	generatedBSMs 	0
scalar MyScenario.node[263].appl 	receivedBSMs 	0
scalar MyScenario.node[263].appl 	generatedWSAs 	0
scalar MyScenario.node[263].appl 	receivedWSAs 	0
scalar MyScenario.node[263].nic.phy80211p 	busyTime 	0
scalar MyScenario.node[263].nic.mac1609_4 	ReceivedUnicastPackets 	0
scalar MyScenario.node[263].nic.mac1609_4 	ReceivedBroadcasts 	0
scalar MyScenario.node[263].nic.mac1609_4 	SentPackets 	0
scalar MyScenario.node[263].nic.mac1609_4 	SNIRLostPackets 	0
scalar MyScenario.node[263].nic.mac1609_4 	RXTXLostPackets 	0
scalar MyScenario.node[263].nic.mac1609_4 	TotalLostPackets 	0
scalar MyScenario.node[263].nic.mac1609_4 	DroppedPacketsInMac 	0
scalar MyScenario.node[263].nic.mac1609_4 	TooLittleTime 	0
scalar MyScenario.node[263].nic.mac1609_4 	TimesIntoBackoff 	0
scalar MyScenario.node[263].nic.mac1609_4 	SlotsBackoff 	0
scalar MyScenario.node[263].nic.mac1609_4 	NumInternalContention 	0
scalar MyScenario.node[263].nic.mac1609_4 	totalBusyTime 	0
scalar MyScenario.node[263].veinsmobility 	startTime 	4
scalar MyScenario.node[263].veinsmobility 	totalTime 	25
scalar MyScenario.node[263].veinsmobility 	stopTime 	30
scalar MyScenario.node[263].veinsmobility 	minSpeed 	2.1546667424263
scalar MyScenario.node[263].veinsmobility 	maxSpeed 	13.876836597966
scalar MyScenario.node[263].veinsmobility 	totalDistance 	272.24284641922
scalar MyScenario.node[263].veinsmobility 	totalCO2Emission 	85.77907143502
scalar MyScenario.node[234].appl 	generatedWSMs 	0
scalar MyScenario.node[234].appl 	receivedWSMs 	0
scalar MyScenario.node[234].appl 	generatedBSMs 	0
scalar MyScenario.node[234].appl 	receivedBSMs 	0
scalar MyScenario.node[234].appl 	generatedWSAs 	0
scalar MyScenario.node[234].appl 	receivedWSAs 	0
scalar MyScenario.node[234].nic.phy80211p 	busyTime 	0.000104
scalar MyScenario.node[234].nic.mac1609_4 	ReceivedUnicastPackets 	0
scalar MyScenario.node[234].nic.mac1609_4 	ReceivedBroadcasts 	0
scalar MyScenario.node[234].nic.mac1609_4 	SentPackets 	0
scalar MyScenario.node[234].nic.mac1609_4 	SNIRLostPackets 	13
scalar MyScenario.node[234].nic.mac1609_4 	RXTXLostPackets 	0
scalar MyScenario.node[234].nic.mac1609_4 	TotalLostPackets 	13
scalar MyScenario.node[234].nic.mac1609_4 	DroppedPacketsInMac 	0
scalar MyScenario.node[234].nic.mac1609_4 	TooLittleTime 	0
scalar MyScenario.node[234].nic.mac1609_4 	TimesIntoBackoff 	0
scalar MyScenario.node[234].nic.mac1609_4 	SlotsBackoff 	0
scalar MyScenario.node[234].nic.mac1609_4 	NumInternalContention 	0
scalar MyScenario.node[234].nic.mac1609_4 	totalBusyTime 	0.001392
scalar MyScenario.node[234].veinsmobility 	startTime 	4
scalar MyScenario.node[234].veinsmobility 	totalTime 	28
scalar MyScenario.node[234].veinsmobility 	stopTime 	33
scalar MyScenario.node[234].veinsmobility 	minSpeed 	0.00018388609007486
scalar MyScenario.node[234].veinsmobility 	maxSpeed 	13.777585715638
scalar MyScenario.node[234].veinsmobility 	totalDistance 	180.80555509875
scalar MyScenario.node[234].veinsmobility 	totalCO2Emission 	70.311290336562
scalar MyScenario.node[279].appl 	generatedWSMs 	1
scalar MyScenario.node[279].appl 	receivedWSMs 	1
scalar MyScenario.node[279].appl 	generatedBSMs 	0
scalar MyScenario.node[279].appl 	receivedBSMs 	0
scalar MyScenario.node[279].appl 	generatedWSAs 	0
scalar MyScenario.node[279].appl 	receivedWSAs 	0
scalar MyScenario.node[279].nic.phy80211p 	busyTime 	4e-05
scalar MyScenario.node[279].nic.mac1609_4 	ReceivedUnicastPackets 	0
scalar MyScenario.node[279].nic.mac1609_4 	ReceivedBroadcasts 	1
scalar MyScenario.node[279].nic.mac1609_4 	SentPackets 	1
scalar MyScenario.node[279].nic.mac1609_4 	SNIRLostPackets 	4
scalar MyScenario.node[279].nic.mac1609_4 	RXTXLostPackets 	17
scalar MyScenario.node[279].nic.mac1609_4 	TotalLostPackets 	21
scalar MyScenario.node[279].nic.mac1609_4 	DroppedPacketsInMac 	0
scalar MyScenario.node[279].nic.mac1609_4 	TooLittleTime 	0
scalar MyScenario.node[279].nic.mac1609_4 	TimesIntoBackoff 	1
scalar MyScenario.node[279].nic.mac1609_4 	SlotsBackoff 	2
scalar MyScenario.node[279].nic.mac1609_4 	NumInternalContention 	0
scalar MyScenario.node[279].nic.mac1609_4 	totalBusyTime 	0.000697150388
scalar MyScenario.node[279].veinsmobility 	startTime 	4
scalar MyScenario.node[279].veinsmobility 	totalTime 	28
scalar MyScenario.node[279].veinsmobility 	stopTime 	33
scalar MyScenario.node[279].veinsmobility 	minSpeed 	2.2609364287462
scalar MyScenario.node[279].veinsmobility 	maxSpeed 	13.657661742344
scalar MyScenario.node[279].veinsmobility 	totalDistance 	275.55516898208
scalar MyScenario.node[279].veinsmobility 	totalCO2Emission 	97.449849272775
scalar MyScenario.node[99].appl 	generatedWSMs 	0
scalar MyScenario.node[99].appl 	receivedWSMs 	0
scalar MyScenario.node[99].appl 	generatedBSMs 	0
scalar MyScenario.node[99].appl 	receivedBSMs 	0
scalar MyScenario.node[99].appl 	generatedWSAs 	0
scalar MyScenario.node[99].appl 	receivedWSAs 	0
scalar MyScenario.node[99].nic.phy80211p 	busyTime 	0
scalar MyScenario.node[99].nic.mac1609_4 	ReceivedUnicastPackets 	0
scalar MyScenario.node[99].nic.mac1609_4 	ReceivedBroadcasts 	0
scalar MyScenario.node[99].nic.mac1609_4 	SentPackets 	0
scalar MyScenario.node[99].nic.mac1609_4 	SNIRLostPackets 	0
scalar MyScenario.node[99].nic.mac1609_4 	RXTXLostPackets 	0
scalar MyScenario.node[99].nic.mac1609_4 	TotalLostPackets 	0
scalar MyScenario.node[99].nic.mac1609_4 	DroppedPacketsInMac 	0
scalar MyScenario.node[99].nic.mac1609_4 	TooLittleTime 	0
scalar MyScenario.node[99].nic.mac1609_4 	TimesIntoBackoff 	0
scalar MyScenario.node[99].nic.mac1609_4 	SlotsBackoff 	0
scalar MyScenario.node[99].nic.mac1609_4 	NumInternalContention 	0
scalar MyScenario.node[99].nic.mac1609_4 	totalBusyTime 	0
scalar MyScenario.node[99].veinsmobility 	startTime 	1
scalar MyScenario.node[99].veinsmobility 	totalTime 	32
scalar MyScenario.node[99].veinsmobility 	stopTime 	34
scalar MyScenario.node[99].veinsmobility 	minSpeed 	2.2852247640025
scalar MyScenario.node[99].veinsmobility 	maxSpeed 	13.860959389713
scalar MyScenario.node[99].veinsmobility 	totalDistance 	377.23694492844
scalar MyScenario.node[99].veinsmobility 	totalCO2Emission 	100.80816922217
scalar MyScenario.node[130].appl 	generatedWSMs 	0
scalar MyScenario.node[130].appl 	receivedWSMs 	0
scalar MyScenario.node[130].appl 	generatedBSMs 	0
scalar MyScenario.node[130].appl 	receivedBSMs 	0
scalar MyScenario.node[130].appl 	generatedWSAs 	0
scalar MyScenario.node[130].appl 	receivedWSAs 	0
scalar MyScenario.node[130].nic.phy80211p 	busyTime 	0
scalar MyScenario.node[130].nic.mac1609_4 	ReceivedUnicastPackets 	0
scalar MyScenario.node[130].nic.mac1609_4 	ReceivedBroadcasts 	0
scalar MyScenario.node[130].nic.mac1609_4 	SentPackets 	0
scalar MyScenario.node[130].nic.mac1609_4 	SNIRLostPackets 	0
scalar MyScenario.node[130].nic.mac1609_4 	RXTXLostPackets 	0
scalar MyScenario.node[130].nic.mac1609_4 	TotalLostPackets 	0
scalar MyScenario.node[130].nic.mac1609_4 	DroppedPacketsInMac 	0
scalar MyScenario.node[130].nic.mac1609_4 	TooLittleTime 	0
scalar MyScenario.node[130].nic.mac1609_4 	TimesIntoBackoff 	0
scalar MyScenario.node[130].nic.mac1609_4 	SlotsBackoff 	0
scalar MyScenario.node[130].nic.mac1609_4 	NumInternalContention 	0
scalar MyScenario.node[130].nic.mac1609_4 	totalBusyTime 	0
scalar MyScenario.node[130].veinsmobility 	startTime 	1
scalar MyScenario.node[130].veinsmobility 	totalTime 	32
scalar MyScenario.node[130].veinsmobility 	stopTime 	34
scalar MyScenario.node[130].veinsmobility 	minSpeed 	2.4607922534458
scalar MyScenario.node[130].veinsmobility 	maxSpeed 	13.610087564331
scalar MyScenario.node[130].veinsmobility 	totalDistance 	363.38805864094
scalar MyScenario.node[130].veinsmobility 	totalCO2Emission 	101.4669750627
scalar MyScenario.node[112].appl 	generatedWSMs 	0
scalar MyScenario.node[112].appl 	receivedWSMs 	0
scalar MyScenario.node[112].appl 	generatedBSMs 	0
scalar MyScenario.node[112].appl 	receivedBSMs 	0
scalar MyScenario.node[112].appl 	generatedWSAs 	0
scalar MyScenario.node[112].appl 	receivedWSAs 	0
scalar MyScenario.node[112].nic.phy80211p 	busyTime 	0
scalar MyScenario.node[112].nic.mac1609_4 	ReceivedUnicastPackets 	0
scalar MyScenario.node[112].nic.mac1609_4 	ReceivedBroadcasts 	0
scalar MyScenario.node[112].nic.mac1609_4 	SentPackets 	0
scalar MyScenario.node[112].nic.mac1609_4 	SNIRLostPackets 	0
scalar MyScenario.node[112].nic.mac1609_4 	RXTXLostPackets 	0
scalar MyScenario.node[112].nic.mac1609_4 	TotalLostPackets 	0
scalar MyScenario.node[112].nic.mac1609_4 	DroppedPacketsInMac 	0
scalar MyScenario.node[112].nic.mac1609_4 	TooLittleTime 	0
scalar MyScenario.node[112].nic.mac1609_4 	TimesIntoBackoff 	0
scalar MyScenario.node[112].nic.mac1609_4 	SlotsBackoff 	0
scalar MyScenario.node[112].nic.mac1609_4 	NumInternalContention 	0
scalar MyScenario.node[112].nic.mac1609_4 	totalBusyTime 	0
scalar MyScenario.node[112].veinsmobility 	startTime 	1
scalar MyScenario.node[112].veinsmobility 	totalTime 	34
scalar MyScenario.node[112].veinsmobility 	stopTime 	36
scalar MyScenario.node[112].veinsmobility 	minSpeed 	2.1678076414159
scalar MyScenario.node[112].veinsmobility 	maxSpeed 	13.860367737198
scalar MyScenario.node[112].veinsmobility 	totalDistance 	377.61965367212
scalar MyScenario.node[112].veinsmobility 	totalCO2Emission 	110.89261053583
scalar MyScenario.node[104].appl 	generatedWSMs 	1
scalar MyScenario.node[104].appl 	receivedWSMs 	4
scalar MyScenario.node[104].appl 	generatedBSMs 	0
scalar MyScenario.node[104].appl 	receivedBSMs 	0
scalar MyScenario.node[104].appl 	generatedWSAs 	0
scalar MyScenario.node[104].appl 	receivedWSAs 	0
scalar MyScenario.node[104].nic.phy80211p 	busyTime 	0.00015675675675676
scalar MyScenario.node[104].nic.mac1609_4 	ReceivedUnicastPackets 	0
scalar MyScenario.node[104].nic.mac1609_4 	ReceivedBroadcasts 	4
scalar MyScenario.node[104].nic.mac1609_4 	SentPackets 	1
scalar MyScenario.node[104].nic.mac1609_4 	SNIRLostPackets 	21
scalar MyScenario.node[104].nic.mac1609_4 	RXTXLostPackets 	3
scalar MyScenario.node[104].nic.mac1609_4 	TotalLostPackets 	24
scalar MyScenario.node[104].nic.mac1609_4 	DroppedPacketsInMac 	0
scalar MyScenario.node[104].nic.mac1609_4 	TooLittleTime 	0
scalar MyScenario.node[104].nic.mac1609_4 	TimesIntoBackoff 	1
scalar MyScenario.node[104].nic.mac1609_4 	SlotsBackoff 	1
scalar MyScenario.node[104].nic.mac1609_4 	NumInternalContention 	0
scalar MyScenario.node[104].nic.mac1609_4 	totalBusyTime 	0.002785055288
scalar MyScenario.node[104].veinsmobility 	startTime 	1
scalar MyScenario.node[104].veinsmobility 	totalTime 	36
scalar MyScenario.node[104].veinsmobility 	stopTime 	38
scalar MyScenario.node[104].veinsmobility 	minSpeed 	0.75798837019472
scalar MyScenario.node[104].veinsmobility 	maxSpeed 	13.890191201936
scalar MyScenario.node[104].veinsmobility 	totalDistance 	372.88618954301
scalar MyScenario.node[104].veinsmobility 	totalCO2Emission 	116.86182276524
scalar MyScenario.node[295].appl 	generatedWSMs 	0
scalar MyScenario.node[295].appl 	receivedWSMs 	0
scalar MyScenario.node[295].appl 	generatedBSMs 	0
scalar MyScenario.node[295].appl 	receivedBSMs 	0
scalar MyScenario.node[295].appl 	generatedWSAs 	0
scalar MyScenario.node[295].appl 	receivedWSAs 	0
scalar MyScenario.node[295].nic.phy80211p 	busyTime 	0.00015466666666667
scalar MyScenario.node[295].nic.mac1609_4 	ReceivedUnicastPackets 	0
scalar MyScenario.node[295].nic.mac1609_4 	ReceivedBroadcasts 	0
scalar MyScenario.node[295].nic.mac1609_4 	SentPackets 	0
scalar MyScenario.node[295].nic.mac1609_4 	SNIRLostPackets 	22
scalar MyScenario.node[295].nic.mac1609_4 	RXTXLostPackets 	0
scalar MyScenario.node[295].nic.mac1609_4 	TotalLostPackets 	22
scalar MyScenario.node[295].nic.mac1609_4 	DroppedPacketsInMac 	0
scalar MyScenario.node[295].nic.mac1609_4 	TooLittleTime 	0
scalar MyScenario.node[295].nic.mac1609_4 	TimesIntoBackoff 	0
scalar MyScenario.node[295].nic.mac1609_4 	SlotsBackoff 	0
scalar MyScenario.node[295].nic.mac1609_4 	NumInternalContention 	0
scalar MyScenario.node[295].nic.mac1609_4 	totalBusyTime 	0.000464
scalar MyScenario.node[295].veinsmobility 	startTime 	7
scalar MyScenario.node[295].veinsmobility 	totalTime 	32
scalar MyScenario.node[295].veinsmobility 	stopTime 	40
scalar MyScenario.node[295].veinsmobility 	minSpeed 	1.5022755820071
scalar MyScenario.node[295].veinsmobility 	maxSpeed 	13.82251518371
scalar MyScenario.node[295].veinsmobility 	totalDistance 	364.11747586021
scalar MyScenario.node[295].veinsmobility 	totalCO2Emission 	99.632873031439
scalar MyScenario.node[133].appl 	generatedWSMs 	0
scalar MyScenario.node[133].appl 	receivedWSMs 	0
scalar MyScenario.node[133].appl 	generatedBSMs 	0
scalar MyScenario.node[133].appl 	receivedBSMs 	0
scalar MyScenario.node[133].appl 	generatedWSAs 	0
scalar MyScenario.node[133].appl 	receivedWSAs 	0
scalar MyScenario.node[133].nic.phy80211p 	busyTime 	4.06e-05
scalar MyScenario.node[133].nic.mac1609_4 	ReceivedUnicastPackets 	0
scalar MyScenario.node[133].nic.mac1609_4 	ReceivedBroadcasts 	0
scalar MyScenario.node[133].nic.mac1609_4 	SentPackets 	0
scalar MyScenario.node[133].nic.mac1609_4 	SNIRLostPackets 	7
scalar MyScenario.node[133].nic.mac1609_4 	RXTXLostPackets 	0
scalar MyScenario.node[133].nic.mac1609_4 	TotalLostPackets 	7
scalar MyScenario.node[133].nic.mac1609_4 	DroppedPacketsInMac 	0
scalar MyScenario.node[133].nic.mac1609_4 	TooLittleTime 	0
scalar MyScenario.node[133].nic.mac1609_4 	TimesIntoBackoff 	0
scalar MyScenario.node[133].nic.mac1609_4 	SlotsBackoff 	0
scalar MyScenario.node[133].nic.mac1609_4 	NumInternalContention 	0
scalar MyScenario.node[133].nic.mac1609_4 	totalBusyTime 	0.000232
scalar MyScenario.node[133].veinsmobility 	startTime 	1
scalar MyScenario.node[133].veinsmobility 	totalTime 	39
scalar MyScenario.node[133].veinsmobility 	stopTime 	41
scalar MyScenario.node[133].veinsmobility 	minSpeed 	0.15302741733582
scalar MyScenario.node[133].veinsmobility 	maxSpeed 	13.750766284717
scalar MyScenario.node[133].veinsmobility 	totalDistance 	366.89124736749
scalar MyScenario.node[133].veinsmobility 	totalCO2Emission 	125.92337026487
scalar MyScenario.node[298].appl 	generatedWSMs 	0
scalar MyScenario.node[298].appl 	receivedWSMs 	0
scalar MyScenario.node[298].appl 	generatedBSMs 	0
scalar MyScenario.node[298].appl 	receivedBSMs 	0
scalar MyScenario.node[298].appl 	generatedWSAs 	0
scalar MyScenario.node[298].appl 	receivedWSAs 	0
scalar MyScenario.node[298].nic.phy80211p 	busyTime 	1.5466666666667e-05
scalar MyScenario.node[298].nic.mac1609_4 	ReceivedUnicastPackets 	0
scalar MyScenario.node[298].nic.mac1609_4 	ReceivedBroadcasts 	0
scalar MyScenario.node[298].nic.mac1609_4 	SentPackets 	0
scalar MyScenario.node[298].nic.mac1609_4 	SNIRLostPackets 	2
scalar MyScenario.node[298].nic.mac1609_4 	RXTXLostPackets 	0
scalar MyScenario.node[298].nic.mac1609_4 	TotalLostPackets 	2
scalar MyScenario.node[298].nic.mac1609_4 	DroppedPacketsInMac 	0
scalar MyScenario.node[298].nic.mac1609_4 	TooLittleTime 	0
scalar MyScenario.node[298].nic.mac1609_4 	TimesIntoBackoff 	0
scalar MyScenario.node[298].nic.mac1609_4 	SlotsBackoff 	0
scalar MyScenario.node[298].nic.mac1609_4 	NumInternalContention 	0
scalar MyScenario.node[298].nic.mac1609_4 	totalBusyTime 	0.000232
scalar MyScenario.node[298].veinsmobility 	startTime 	11
scalar MyScenario.node[298].veinsmobility 	totalTime 	29
scalar MyScenario.node[298].veinsmobility 	stopTime 	41
scalar MyScenario.node[298].veinsmobility 	minSpeed 	0.00015781205480969
scalar MyScenario.node[298].veinsmobility 	maxSpeed 	13.888776121335
scalar MyScenario.node[298].veinsmobility 	totalDistance 	273.29820623687
scalar MyScenario.node[298].veinsmobility 	totalCO2Emission 	76.577714545936
scalar MyScenario.node[62].appl 	generatedWSMs 	0
scalar MyScenario.node[62].appl 	receivedWSMs 	0
scalar MyScenario.node[62].appl 	generatedBSMs 	0
scalar MyScenario.node[62].appl 	receivedBSMs 	0
scalar MyScenario.node[62].appl 	generatedWSAs 	0
scalar MyScenario.node[62].appl 	receivedWSAs 	0
scalar MyScenario.node[62].nic.phy80211p 	busyTime 	1.6975609756098e-05
scalar MyScenario.node[62].nic.mac1609_4 	ReceivedUnicastPackets 	0
scalar MyScenario.node[62].nic.mac1609_4 	ReceivedBroadcasts 	0
scalar MyScenario.node[62].nic.mac1609_4 	SentPackets 	0
scalar MyScenario.node[62].nic.mac1609_4 	SNIRLostPackets 	3
scalar MyScenario.node[62].nic.mac1609_4 	RXTXLostPackets 	0
scalar MyScenario.node[62].nic.mac1609_4 	TotalLostPackets 	3
scalar MyScenario.node[62].nic.mac1609_4 	DroppedPacketsInMac 	0
scalar MyScenario.node[62].nic.mac1609_4 	TooLittleTime 	0
scalar MyScenario.node[62].nic.mac1609_4 	TimesIntoBackoff 	0
scalar MyScenario.node[62].nic.mac1609_4 	SlotsBackoff 	0
scalar MyScenario.node[62].nic.mac1609_4 	NumInternalContention 	0
scalar MyScenario.node[62].nic.mac1609_4 	totalBusyTime 	0.000232
scalar MyScenario.node[62].veinsmobility 	startTime 	1
scalar MyScenario.node[62].veinsmobility 	totalTime 	40
scalar MyScenario.node[62].veinsmobility 	stopTime 	42
scalar MyScenario.node[62].veinsmobility 	minSpeed 	2.5364486023318
scalar MyScenario.node[62].veinsmobility 	maxSpeed 	13.89183224726
scalar MyScenario.node[62].veinsmobility 	totalDistance 	469.04570352887
scalar MyScenario.node[62].veinsmobility 	totalCO2Emission 	121.59807074979
scalar MyScenario.node[207].appl 	generatedWSMs 	1
scalar MyScenario.node[207].appl 	receivedWSMs 	7
scalar MyScenario.node[207].appl 	generatedBSMs 	0
scalar MyScenario.node[207].appl 	receivedBSMs 	0
scalar MyScenario.node[207].appl 	generatedWSAs 	0
scalar MyScenario.node[207].appl 	receivedWSAs 	0
scalar MyScenario.node[207].nic.phy80211p 	busyTime 	0.00022634146341463
scalar MyScenario.node[207].nic.mac1609_4 	ReceivedUnicastPackets 	0
scalar MyScenario.node[207].nic.mac1609_4 	ReceivedBroadcasts 	7
scalar MyScenario.node[207].nic.mac1609_4 	SentPackets 	1
scalar MyScenario.node[207].nic.mac1609_4 	SNIRLostPackets 	33
scalar MyScenario.node[207].nic.mac1609_4 	RXTXLostPackets 	14
scalar MyScenario.node[207].nic.mac1609_4 	TotalLostPackets 	47
scalar MyScenario.node[207].nic.mac1609_4 	DroppedPacketsInMac 	0
scalar MyScenario.node[207].nic.mac1609_4 	TooLittleTime 	0
scalar MyScenario.node[207].nic.mac1609_4 	TimesIntoBackoff 	1
scalar MyScenario.node[207].nic.mac1609_4 	SlotsBackoff 	3
scalar MyScenario.node[207].nic.mac1609_4 	NumInternalContention 	0
scalar MyScenario.node[207].nic.mac1609_4 	totalBusyTime 	0.003249141028
scalar MyScenario.node[207].veinsmobility 	startTime 	1
scalar MyScenario.node[207].veinsmobility 	totalTime 	40
scalar MyScenario.node[207].veinsmobility 	stopTime 	42
scalar MyScenario.node[207].veinsmobility 	minSpeed 	1.8605409647571
scalar MyScenario.node[207].veinsmobility 	maxSpeed 	13.785000035912
scalar MyScenario.node[207].veinsmobility 	totalDistance 	469.37448247571
scalar MyScenario.node[207].veinsmobility 	totalCO2Emission 	118.55394868746
scalar MyScenario.node[28].appl 	generatedWSMs 	1
scalar MyScenario.node[28].appl 	receivedWSMs 	10
scalar MyScenario.node[28].appl 	generatedBSMs 	0
scalar MyScenario.node[28].appl 	receivedBSMs 	0
scalar MyScenario.node[28].appl 	generatedWSAs 	0
scalar MyScenario.node[28].appl 	receivedWSAs 	0
scalar MyScenario.node[28].nic.phy80211p 	busyTime 	0.00013257142857143
scalar MyScenario.node[28].nic.mac1609_4 	ReceivedUnicastPackets 	0
scalar MyScenario.node[28].nic.mac1609_4 	ReceivedBroadcasts 	10
scalar MyScenario.node[28].nic.mac1609_4 	SentPackets 	1
scalar MyScenario.node[28].nic.mac1609_4 	SNIRLostPackets 	14
scalar MyScenario.node[28].nic.mac1609_4 	RXTXLostPackets 	20
scalar MyScenario.node[28].nic.mac1609_4 	TotalLostPackets 	34
scalar MyScenario.node[28].nic.mac1609_4 	DroppedPacketsInMac 	0
scalar MyScenario.node[28].nic.mac1609_4 	TooLittleTime 	0
scalar MyScenario.node[28].nic.mac1609_4 	TimesIntoBackoff 	1
scalar MyScenario.node[28].nic.mac1609_4 	SlotsBackoff 	3
scalar MyScenario.node[28].nic.mac1609_4 	NumInternalContention 	0
scalar MyScenario.node[28].nic.mac1609_4 	totalBusyTime 	0.003249031331
scalar MyScenario.node[28].veinsmobility 	startTime 	1
scalar MyScenario.node[28].veinsmobility 	totalTime 	41
scalar MyScenario.node[28].veinsmobility 	stopTime 	43
scalar MyScenario.node[28].veinsmobility 	minSpeed 	1.4423541070893
scalar MyScenario.node[28].veinsmobility 	maxSpeed 	13.804931383126
scalar MyScenario.node[28].veinsmobility 	totalDistance 	475.59969886005
scalar MyScenario.node[28].veinsmobility 	totalCO2Emission 	123.66430354553
scalar MyScenario.node[275].appl 	generatedWSMs 	0
scalar MyScenario.node[275].appl 	receivedWSMs 	0
scalar MyScenario.node[275].appl 	generatedBSMs 	0
scalar MyScenario.node[275].appl 	receivedBSMs 	0
scalar MyScenario.node[275].appl 	generatedWSAs 	0
scalar MyScenario.node[275].appl 	receivedWSAs 	0
scalar MyScenario.node[275].nic.phy80211p 	busyTime 	5.22e-05
scalar MyScenario.node[275].nic.mac1609_4 	ReceivedUnicastPackets 	0
scalar MyScenario.node[275].nic.mac1609_4 	ReceivedBroadcasts 	0
scalar MyScenario.node[275].nic.mac1609_4 	SentPackets 	0
scalar MyScenario.node[275].nic.mac1609_4 	SNIRLostPackets 	9
scalar MyScenario.node[275].nic.mac1609_4 	RXTXLostPackets 	0
scalar MyScenario.node[275].nic.mac1609_4 	TotalLostPackets 	9
scalar MyScenario.node[275].nic.mac1609_4 	DroppedPacketsInMac 	0
scalar MyScenario.node[275].nic.mac1609_4 	TooLittleTime 	0
scalar MyScenario.node[275].nic.mac1609_4 	TimesIntoBackoff 	0
scalar MyScenario.node[275].nic.mac1609_4 	SlotsBackoff 	0
scalar MyScenario.node[275].nic.mac1609_4 	NumInternalContention 	0
scalar MyScenario.node[275].nic.mac1609_4 	totalBusyTime 	0.000464
scalar MyScenario.node[275].veinsmobility 	startTime 	4
scalar MyScenario.node[275].veinsmobility 	totalTime 	39
scalar MyScenario.node[275].veinsmobility 	stopTime 	44
scalar MyScenario.node[275].veinsmobility 	minSpeed 	0.50244545168187
scalar MyScenario.node[275].veinsmobility 	maxSpeed 	13.866245462419
scalar MyScenario.node[275].veinsmobility 	totalDistance 	371.4246767019
scalar MyScenario.node[275].veinsmobility 	totalCO2Emission 	133.94018281756
scalar MyScenario.node[267].appl 	generatedWSMs 	0
scalar MyScenario.node[267].appl 	receivedWSMs 	0
scalar MyScenario.node[267].appl 	generatedBSMs 	0
scalar MyScenario.node[267].appl 	receivedBSMs 	0
scalar MyScenario.node[267].appl 	generatedWSAs 	0
scalar MyScenario.node[267].appl 	receivedWSAs 	0
scalar MyScenario.node[267].nic.phy80211p 	busyTime 	0.0001566
scalar MyScenario.node[267].nic.mac1609_4 	ReceivedUnicastPackets 	0
scalar MyScenario.node[267].nic.mac1609_4 	ReceivedBroadcasts 	0
scalar MyScenario.node[267].nic.mac1609_4 	SentPackets 	0
scalar MyScenario.node[267].nic.mac1609_4 	SNIRLostPackets 	27
scalar MyScenario.node[267].nic.mac1609_4 	RXTXLostPackets 	0
scalar MyScenario.node[267].nic.mac1609_4 	TotalLostPackets 	27
scalar MyScenario.node[267].nic.mac1609_4 	DroppedPacketsInMac 	0
scalar MyScenario.node[267].nic.mac1609_4 	TooLittleTime 	0
scalar MyScenario.node[267].nic.mac1609_4 	TimesIntoBackoff 	0
scalar MyScenario.node[267].nic.mac1609_4 	SlotsBackoff 	0
scalar MyScenario.node[267].nic.mac1609_4 	NumInternalContention 	0
scalar MyScenario.node[267].nic.mac1609_4 	totalBusyTime 	0.000928
scalar MyScenario.node[267].veinsmobility 	startTime 	4
scalar MyScenario.node[267].veinsmobility 	totalTime 	39
scalar MyScenario.node[267].veinsmobility 	stopTime 	44
scalar MyScenario.node[267].veinsmobility 	minSpeed 	1.5596835845792e-05
scalar MyScenario.node[267].veinsmobility 	maxSpeed 	13.892838075664
scalar MyScenario.node[267].veinsmobility 	totalDistance 	367.72009339063
scalar MyScenario.node[267].veinsmobility 	totalCO2Emission 	118.47329509002
scalar MyScenario.node[167].appl 	generatedWSMs 	1
scalar MyScenario.node[167].appl 	receivedWSMs 	10
scalar MyScenario.node[167].appl 	generatedBSMs 	0
scalar MyScenario.node[167].appl 	receivedBSMs 	0
scalar MyScenario.node[167].appl 	generatedWSAs 	0
scalar MyScenario.node[167].appl 	receivedWSAs 	0
scalar MyScenario.node[167].nic.phy80211p 	busyTime 	0.00019962790697674
scalar MyScenario.node[167].nic.mac1609_4 	ReceivedUnicastPackets 	0
scalar MyScenario.node[167].nic.mac1609_4 	ReceivedBroadcasts 	10
scalar MyScenario.node[167].nic.mac1609_4 	SentPackets 	1
scalar MyScenario.node[167].nic.mac1609_4 	SNIRLostPackets 	27
scalar MyScenario.node[167].nic.mac1609_4 	RXTXLostPackets 	2
scalar MyScenario.node[167].nic.mac1609_4 	TotalLostPackets 	29
scalar MyScenario.node[167].nic.mac1609_4 	DroppedPacketsInMac 	0
scalar MyScenario.node[167].nic.mac1609_4 	TooLittleTime 	0
scalar MyScenario.node[167].nic.mac1609_4 	TimesIntoBackoff 	1
scalar MyScenario.node[167].nic.mac1609_4 	SlotsBackoff 	1
scalar MyScenario.node[167].nic.mac1609_4 	NumInternalContention 	0
scalar MyScenario.node[167].nic.mac1609_4 	totalBusyTime 	0.004177
scalar MyScenario.node[167].veinsmobility 	startTime 	1
scalar MyScenario.node[167].veinsmobility 	totalTime 	42
scalar MyScenario.node[167].veinsmobility 	stopTime 	44
scalar MyScenario.node[167].veinsmobility 	minSpeed 	2.4375427759252
scalar MyScenario.node[167].veinsmobility 	maxSpeed 	13.861419366812
scalar MyScenario.node[167].veinsmobility 	totalDistance 	473.75869848023
scalar MyScenario.node[167].veinsmobility 	totalCO2Emission 	121.82603113208
scalar MyScenario.node[57].appl 	generatedWSMs 	1
scalar MyScenario.node[57].appl 	receivedWSMs 	8
scalar MyScenario.node[57].appl 	generatedBSMs 	0
scalar MyScenario.node[57].appl 	receivedBSMs 	0
scalar MyScenario.node[57].appl 	generatedWSAs 	0
scalar MyScenario.node[57].appl 	receivedWSAs 	0
scalar MyScenario.node[57].nic.phy80211p 	busyTime 	0.00025358139534884
scalar MyScenario.node[57].nic.mac1609_4 	ReceivedUnicastPackets 	0
scalar MyScenario.node[57].nic.mac1609_4 	ReceivedBroadcasts 	8
scalar MyScenario.node[57].nic.mac1609_4 	SentPackets 	1
scalar MyScenario.node[57].nic.mac1609_4 	SNIRLostPackets 	39
scalar MyScenario.node[57].nic.mac1609_4 	RXTXLostPackets 	28
scalar MyScenario.node[57].nic.mac1609_4 	TotalLostPackets 	67
scalar MyScenario.node[57].nic.mac1609_4 	DroppedPacketsInMac 	0
scalar MyScenario.node[57].nic.mac1609_4 	TooLittleTime 	0
scalar MyScenario.node[57].nic.mac1609_4 	TimesIntoBackoff 	1
scalar MyScenario.node[57].nic.mac1609_4 	SlotsBackoff 	2
scalar MyScenario.node[57].nic.mac1609_4 	NumInternalContention 	0
scalar MyScenario.node[57].nic.mac1609_4 	totalBusyTime 	0.003713725185
scalar MyScenario.node[57].veinsmobility 	startTime 	1
scalar MyScenario.node[57].veinsmobility 	totalTime 	42
scalar MyScenario.node[57].veinsmobility 	stopTime 	44
scalar MyScenario.node[57].veinsmobility 	minSpeed 	2.1676475531422
scalar MyScenario.node[57].veinsmobility 	maxSpeed 	13.885722003388
scalar MyScenario.node[57].veinsmobility 	totalDistance 	478.4450742996
scalar MyScenario.node[57].veinsmobility 	totalCO2Emission 	126.94268062141
scalar MyScenario.node[269].appl 	generatedWSMs 	1
scalar MyScenario.node[269].appl 	receivedWSMs 	9
scalar MyScenario.node[269].appl 	generatedBSMs 	0
scalar MyScenario.node[269].appl 	receivedBSMs 	0
scalar MyScenario.node[269].appl 	generatedWSAs 	0
scalar MyScenario.node[269].appl 	receivedWSAs 	0
scalar MyScenario.node[269].nic.phy80211p 	busyTime 	0.00015278048780488
scalar MyScenario.node[269].nic.mac1609_4 	ReceivedUnicastPackets 	0
scalar MyScenario.node[269].nic.mac1609_4 	ReceivedBroadcasts 	9
scalar MyScenario.node[269].nic.mac1609_4 	SentPackets 	1
scalar MyScenario.node[269].nic.mac1609_4 	SNIRLostPackets 	18
scalar MyScenario.node[269].nic.mac1609_4 	RXTXLostPackets 	11
scalar MyScenario.node[269].nic.mac1609_4 	TotalLostPackets 	29
scalar MyScenario.node[269].nic.mac1609_4 	DroppedPacketsInMac 	0
scalar MyScenario.node[269].nic.mac1609_4 	TooLittleTime 	0
scalar MyScenario.node[269].nic.mac1609_4 	TimesIntoBackoff 	1
scalar MyScenario.node[269].nic.mac1609_4 	SlotsBackoff 	2
scalar MyScenario.node[269].nic.mac1609_4 	NumInternalContention 	0
scalar MyScenario.node[269].nic.mac1609_4 	totalBusyTime 	0.003713002704
scalar MyScenario.node[269].veinsmobility 	startTime 	4
scalar MyScenario.node[269].veinsmobility 	totalTime 	40
scalar MyScenario.node[269].veinsmobility 	stopTime 	45
scalar MyScenario.node[269].veinsmobility 	minSpeed 	1.9221291001886
scalar MyScenario.node[269].veinsmobility 	maxSpeed 	13.89356509326
scalar MyScenario.node[269].veinsmobility 	totalDistance 	484.03257201796
scalar MyScenario.node[269].veinsmobility 	totalCO2Emission 	115.80657840506
scalar MyScenario.node[87].appl 	generatedWSMs 	1
scalar MyScenario.node[87].appl 	receivedWSMs 	3
scalar MyScenario.node[87].appl 	generatedBSMs 	0
scalar MyScenario.node[87].appl 	receivedBSMs 	0
scalar MyScenario.node[87].appl 	generatedWSAs 	0
scalar MyScenario.node[87].appl 	receivedWSAs 	0
scalar MyScenario.node[87].nic.phy80211p 	busyTime 	0.00016872727272727
scalar MyScenario.node[87].nic.mac1609_4 	ReceivedUnicastPackets 	0
scalar MyScenario.node[87].nic.mac1609_4 	ReceivedBroadcasts 	3
scalar MyScenario.node[87].nic.mac1609_4 	SentPackets 	1
scalar MyScenario.node[87].nic.mac1609_4 	SNIRLostPackets 	29
scalar MyScenario.node[87].nic.mac1609_4 	RXTXLostPackets 	1
scalar MyScenario.node[87].nic.mac1609_4 	TotalLostPackets 	30
scalar MyScenario.node[87].nic.mac1609_4 	DroppedPacketsInMac 	0
scalar MyScenario.node[87].nic.mac1609_4 	TooLittleTime 	0
scalar MyScenario.node[87].nic.mac1609_4 	TimesIntoBackoff 	1
scalar MyScenario.node[87].nic.mac1609_4 	SlotsBackoff 	1
scalar MyScenario.node[87].nic.mac1609_4 	NumInternalContention 	0
scalar MyScenario.node[87].nic.mac1609_4 	totalBusyTime 	0.002321
scalar MyScenario.node[87].veinsmobility 	startTime 	1
scalar MyScenario.node[87].veinsmobility 	totalTime 	43
scalar MyScenario.node[87].veinsmobility 	stopTime 	45
scalar MyScenario.node[87].veinsmobility 	minSpeed 	1.7643865622347
scalar MyScenario.node[87].veinsmobility 	maxSpeed 	13.827362079476
scalar MyScenario.node[87].veinsmobility 	totalDistance 	474.99656255911
scalar MyScenario.node[87].veinsmobility 	totalCO2Emission 	150.28093422575
scalar MyScenario.node[180].appl 	generatedWSMs 	1
scalar MyScenario.node[180].appl 	receivedWSMs 	12
scalar MyScenario.node[180].appl 	generatedBSMs 	0
scalar MyScenario.node[180].appl 	receivedBSMs 	0
scalar MyScenario.node[180].appl 	generatedWSAs 	0
scalar MyScenario.node[180].appl 	receivedWSAs 	0
scalar MyScenario.node[180].nic.phy80211p 	busyTime 	0.00024713043478261
scalar MyScenario.node[180].nic.mac1609_4 	ReceivedUnicastPackets 	0
scalar MyScenario.node[180].nic.mac1609_4 	ReceivedBroadcasts 	12
scalar MyScenario.node[180].nic.mac1609_4 	SentPackets 	1
scalar MyScenario.node[180].nic.mac1609_4 	SNIRLostPackets 	37
scalar MyScenario.node[180].nic.mac1609_4 	RXTXLostPackets 	1
scalar MyScenario.node[180].nic.mac1609_4 	TotalLostPackets 	38
scalar MyScenario.node[180].nic.mac1609_4 	DroppedPacketsInMac 	0
scalar MyScenario.node[180].nic.mac1609_4 	TooLittleTime 	0
scalar MyScenario.node[180].nic.mac1609_4 	TimesIntoBackoff 	1
scalar MyScenario.node[180].nic.mac1609_4 	SlotsBackoff 	1
scalar MyScenario.node[180].nic.mac1609_4 	NumInternalContention 	0
scalar MyScenario.node[180].nic.mac1609_4 	totalBusyTime 	0.004641
scalar MyScenario.node[180].veinsmobility 	startTime 	1
scalar MyScenario.node[180].veinsmobility 	totalTime 	45
scalar MyScenario.node[180].veinsmobility 	stopTime 	47
scalar MyScenario.node[180].veinsmobility 	minSpeed 	1.9608592475218
scalar MyScenario.node[180].veinsmobility 	maxSpeed 	13.877796682669
scalar MyScenario.node[180].veinsmobility 	totalDistance 	470.72442388225
scalar MyScenario.node[180].veinsmobility 	totalCO2Emission 	166.69458299367
scalar MyScenario.node[245].appl 	generatedWSMs 	1
scalar MyScenario.node[245].appl 	receivedWSMs 	10
scalar MyScenario.node[245].appl 	generatedBSMs 	0
scalar MyScenario.node[245].appl 	receivedBSMs 	0
scalar MyScenario.node[245].appl 	generatedWSAs 	0
scalar MyScenario.node[245].appl 	receivedWSAs 	0
scalar MyScenario.node[245].nic.phy80211p 	busyTime 	0.0001186976744186
scalar MyScenario.node[245].nic.mac1609_4 	ReceivedUnicastPackets 	0
scalar MyScenario.node[245].nic.mac1609_4 	ReceivedBroadcasts 	10
scalar MyScenario.node[245].nic.mac1609_4 	SentPackets 	1
scalar MyScenario.node[245].nic.mac1609_4 	SNIRLostPackets 	12
scalar MyScenario.node[245].nic.mac1609_4 	RXTXLostPackets 	13
scalar MyScenario.node[245].nic.mac1609_4 	TotalLostPackets 	25
scalar MyScenario.node[245].nic.mac1609_4 	DroppedPacketsInMac 	0
scalar MyScenario.node[245].nic.mac1609_4 	TooLittleTime 	0
scalar MyScenario.node[245].nic.mac1609_4 	TimesIntoBackoff 	1
scalar MyScenario.node[245].nic.mac1609_4 	SlotsBackoff 	1
scalar MyScenario.node[245].nic.mac1609_4 	NumInternalContention 	0
scalar MyScenario.node[245].nic.mac1609_4 	totalBusyTime 	0.003945089064
scalar MyScenario.node[245].veinsmobility 	startTime 	4
scalar MyScenario.node[245].veinsmobility 	totalTime 	42
scalar MyScenario.node[245].veinsmobility 	stopTime 	47
scalar MyScenario.node[245].veinsmobility 	minSpeed 	1.4294763700571
scalar MyScenario.node[245].veinsmobility 	maxSpeed 	13.772148546972
scalar MyScenario.node[245].veinsmobility 	totalDistance 	470.62601829812
scalar MyScenario.node[245].veinsmobility 	totalCO2Emission 	133.03807093229
scalar MyScenario.node[74].appl 	generatedWSMs 	1
scalar MyScenario.node[74].appl 	receivedWSMs 	12
scalar MyScenario.node[74].appl 	generatedBSMs 	0
scalar MyScenario.node[74].appl 	receivedBSMs 	0
scalar MyScenario.node[74].appl 	generatedWSAs 	0
scalar MyScenario.node[74].appl 	receivedWSAs 	0
scalar MyScenario.node[74].nic.phy80211p 	busyTime 	0.00015130434782609
scalar MyScenario.node[74].nic.mac1609_4 	ReceivedUnicastPackets 	0
scalar MyScenario.node[74].nic.mac1609_4 	ReceivedBroadcasts 	12
scalar MyScenario.node[74].nic.mac1609_4 	SentPackets 	1
scalar MyScenario.node[74].nic.mac1609_4 	SNIRLostPackets 	18
scalar MyScenario.node[74].nic.mac1609_4 	RXTXLostPackets 	20
scalar MyScenario.node[74].nic.mac1609_4 	TotalLostPackets 	38
scalar MyScenario.node[74].nic.mac1609_4 	DroppedPacketsInMac 	0
scalar MyScenario.node[74].nic.mac1609_4 	TooLittleTime 	0
scalar MyScenario.node[74].nic.mac1609_4 	TimesIntoBackoff 	1
scalar MyScenario.node[74].nic.mac1609_4 	SlotsBackoff 	2
scalar MyScenario.node[74].nic.mac1609_4 	NumInternalContention 	0
scalar MyScenario.node[74].nic.mac1609_4 	totalBusyTime 	0.003945127765
scalar MyScenario.node[74].veinsmobility 	startTime 	1
scalar MyScenario.node[74].veinsmobility 	totalTime 	45
scalar MyScenario.node[74].veinsmobility 	stopTime 	47
scalar MyScenario.node[74].veinsmobility 	minSpeed 	0.75610646129094
scalar MyScenario.node[74].veinsmobility 	maxSpeed 	13.886134768184
scalar MyScenario.node[74].veinsmobility 	totalDistance 	483.80813682477
scalar MyScenario.node[74].veinsmobility 	totalCO2Emission 	131.8147772661
scalar MyScenario.node[159].appl 	generatedWSMs 	1
scalar MyScenario.node[159].appl 	receivedWSMs 	5
scalar MyScenario.node[159].appl 	generatedBSMs 	0
scalar MyScenario.node[159].appl 	receivedBSMs 	0
scalar MyScenario.node[159].appl 	generatedWSAs 	0
scalar MyScenario.node[159].appl 	receivedWSAs 	0
scalar MyScenario.node[159].nic.phy80211p 	busyTime 	0.00017147826086957
scalar MyScenario.node[159].nic.mac1609_4 	ReceivedUnicastPackets 	0
scalar MyScenario.node[159].nic.mac1609_4 	ReceivedBroadcasts 	5
scalar MyScenario.node[159].nic.mac1609_4 	SentPackets 	1
scalar MyScenario.node[159].nic.mac1609_4 	SNIRLostPackets 	29
scalar MyScenario.node[159].nic.mac1609_4 	RXTXLostPackets 	11
scalar MyScenario.node[159].nic.mac1609_4 	TotalLostPackets 	40
scalar MyScenario.node[159].nic.mac1609_4 	DroppedPacketsInMac 	0
scalar MyScenario.node[159].nic.mac1609_4 	TooLittleTime 	0
scalar MyScenario.node[159].nic.mac1609_4 	TimesIntoBackoff 	1
scalar MyScenario.node[159].nic.mac1609_4 	SlotsBackoff 	0
scalar MyScenario.node[159].nic.mac1609_4 	NumInternalContention 	0
scalar MyScenario.node[159].nic.mac1609_4 	totalBusyTime 	0.002321023027
scalar MyScenario.node[159].veinsmobility 	startTime 	1
scalar MyScenario.node[159].veinsmobility 	totalTime 	45
scalar MyScenario.node[159].veinsmobility 	stopTime 	47
scalar MyScenario.node[159].veinsmobility 	minSpeed 	0.64298817856573
scalar MyScenario.node[159].veinsmobility 	maxSpeed 	13.865334310755
scalar MyScenario.node[159].veinsmobility 	totalDistance 	472.0019834159
scalar MyScenario.node[159].veinsmobility 	totalCO2Emission 	148.62287736197
scalar MyScenario.node[231].appl 	generatedWSMs 	0
scalar MyScenario.node[231].appl 	receivedWSMs 	0
scalar MyScenario.node[231].appl 	generatedBSMs 	0
scalar MyScenario.node[231].appl 	receivedBSMs 	0
scalar MyScenario.node[231].appl 	generatedWSAs 	0
scalar MyScenario.node[231].appl 	receivedWSAs 	0
scalar MyScenario.node[231].nic.phy80211p 	busyTime 	3.1636363636364e-05
scalar MyScenario.node[231].nic.mac1609_4 	ReceivedUnicastPackets 	0
scalar MyScenario.node[231].nic.mac1609_4 	ReceivedBroadcasts 	0
scalar MyScenario.node[231].nic.mac1609_4 	SentPackets 	0
scalar MyScenario.node[231].nic.mac1609_4 	SNIRLostPackets 	6
scalar MyScenario.node[231].nic.mac1609_4 	RXTXLostPackets 	0
scalar MyScenario.node[231].nic.mac1609_4 	TotalLostPackets 	6
scalar MyScenario.node[231].nic.mac1609_4 	DroppedPacketsInMac 	0
scalar MyScenario.node[231].nic.mac1609_4 	TooLittleTime 	0
scalar MyScenario.node[231].nic.mac1609_4 	TimesIntoBackoff 	0
scalar MyScenario.node[231].nic.mac1609_4 	SlotsBackoff 	0
scalar MyScenario.node[231].nic.mac1609_4 	NumInternalContention 	0
scalar MyScenario.node[231].nic.mac1609_4 	totalBusyTime 	0.000696
scalar MyScenario.node[231].veinsmobility 	startTime 	4
scalar MyScenario.node[231].veinsmobility 	totalTime 	43
scalar MyScenario.node[231].veinsmobility 	stopTime 	48
scalar MyScenario.node[231].veinsmobility 	minSpeed 	2.2466021621367
scalar MyScenario.node[231].veinsmobility 	maxSpeed 	13.894137545279
scalar MyScenario.node[231].veinsmobility 	totalDistance 	467.518768036
scalar MyScenario.node[231].veinsmobility 	totalCO2Emission 	154.91262668743
scalar MyScenario.node[137].appl 	generatedWSMs 	1
scalar MyScenario.node[137].appl 	receivedWSMs 	1
scalar MyScenario.node[137].appl 	generatedBSMs 	0
scalar MyScenario.node[137].appl 	receivedBSMs 	0
scalar MyScenario.node[137].appl 	generatedWSAs 	0
scalar MyScenario.node[137].appl 	receivedWSAs 	0
scalar MyScenario.node[137].nic.phy80211p 	busyTime 	0.00011353191489362
scalar MyScenario.node[137].nic.mac1609_4 	ReceivedUnicastPackets 	0
scalar MyScenario.node[137].nic.mac1609_4 	ReceivedBroadcasts 	1
scalar MyScenario.node[137].nic.mac1609_4 	SentPackets 	1
scalar MyScenario.node[137].nic.mac1609_4 	SNIRLostPackets 	22
scalar MyScenario.node[137].nic.mac1609_4 	RXTXLostPackets 	15
scalar MyScenario.node[137].nic.mac1609_4 	TotalLostPackets 	37
scalar MyScenario.node[137].nic.mac1609_4 	DroppedPacketsInMac 	0
scalar MyScenario.node[137].nic.mac1609_4 	TooLittleTime 	0
scalar MyScenario.node[137].nic.mac1609_4 	TimesIntoBackoff 	1
scalar MyScenario.node[137].nic.mac1609_4 	SlotsBackoff 	1
scalar MyScenario.node[137].nic.mac1609_4 	NumInternalContention 	0
scalar MyScenario.node[137].nic.mac1609_4 	totalBusyTime 	0.001393
scalar MyScenario.node[137].veinsmobility 	startTime 	1
scalar MyScenario.node[137].veinsmobility 	totalTime 	46
scalar MyScenario.node[137].veinsmobility 	stopTime 	48
scalar MyScenario.node[137].veinsmobility 	minSpeed 	2.5315260081552
scalar MyScenario.node[137].veinsmobility 	maxSpeed 	13.836761796963
scalar MyScenario.node[137].veinsmobility 	totalDistance 	574.2901075302
scalar MyScenario.node[137].veinsmobility 	totalCO2Emission 	118.99002602552
scalar MyScenario.node[16].appl 	generatedWSMs 	0
scalar MyScenario.node[16].appl 	receivedWSMs 	0
scalar MyScenario.node[16].appl 	generatedBSMs 	0
scalar MyScenario.node[16].appl 	receivedBSMs 	0
scalar MyScenario.node[16].appl 	generatedWSAs 	0
scalar MyScenario.node[16].appl 	receivedWSAs 	0
scalar MyScenario.node[16].nic.phy80211p 	busyTime 	6.7666666666667e-05
scalar MyScenario.node[16].nic.mac1609_4 	ReceivedUnicastPackets 	0
scalar MyScenario.node[16].nic.mac1609_4 	ReceivedBroadcasts 	0
scalar MyScenario.node[16].nic.mac1609_4 	SentPackets 	0
scalar MyScenario.node[16].nic.mac1609_4 	SNIRLostPackets 	14
scalar MyScenario.node[16].nic.mac1609_4 	RXTXLostPackets 	0
scalar MyScenario.node[16].nic.mac1609_4 	TotalLostPackets 	14
scalar MyScenario.node[16].nic.mac1609_4 	DroppedPacketsInMac 	0
scalar MyScenario.node[16].nic.mac1609_4 	TooLittleTime 	0
scalar MyScenario.node[16].nic.mac1609_4 	TimesIntoBackoff 	0
scalar MyScenario.node[16].nic.mac1609_4 	SlotsBackoff 	0
scalar MyScenario.node[16].nic.mac1609_4 	NumInternalContention 	0
scalar MyScenario.node[16].nic.mac1609_4 	totalBusyTime 	0.000464
scalar MyScenario.node[16].veinsmobility 	startTime 	1
scalar MyScenario.node[16].veinsmobility 	totalTime 	47
scalar MyScenario.node[16].veinsmobility 	stopTime 	49
scalar MyScenario.node[16].veinsmobility 	minSpeed 	0.048598079061058
scalar MyScenario.node[16].veinsmobility 	maxSpeed 	13.870827558124
scalar MyScenario.node[16].veinsmobility 	totalDistance 	482.83649340557
scalar MyScenario.node[16].veinsmobility 	totalCO2Emission 	152.18134300324
scalar MyScenario.node[299].appl 	generatedWSMs 	0
scalar MyScenario.node[299].appl 	receivedWSMs 	0
scalar MyScenario.node[299].appl 	generatedBSMs 	0
scalar MyScenario.node[299].appl 	receivedBSMs 	0
scalar MyScenario.node[299].appl 	generatedWSAs 	0
scalar MyScenario.node[299].appl 	receivedWSAs 	0
scalar MyScenario.node[299].nic.phy80211p 	busyTime 	3.0526315789474e-05
scalar MyScenario.node[299].nic.mac1609_4 	ReceivedUnicastPackets 	0
scalar MyScenario.node[299].nic.mac1609_4 	ReceivedBroadcasts 	0
scalar MyScenario.node[299].nic.mac1609_4 	SentPackets 	0
scalar MyScenario.node[299].nic.mac1609_4 	SNIRLostPackets 	5
scalar MyScenario.node[299].nic.mac1609_4 	RXTXLostPackets 	0
scalar MyScenario.node[299].nic.mac1609_4 	TotalLostPackets 	5
scalar MyScenario.node[299].nic.mac1609_4 	DroppedPacketsInMac 	0
scalar MyScenario.node[299].nic.mac1609_4 	TooLittleTime 	0
scalar MyScenario.node[299].nic.mac1609_4 	TimesIntoBackoff 	0
scalar MyScenario.node[299].nic.mac1609_4 	SlotsBackoff 	0
scalar MyScenario.node[299].nic.mac1609_4 	NumInternalContention 	0
scalar MyScenario.node[299].nic.mac1609_4 	totalBusyTime 	0.000232
scalar MyScenario.node[299].veinsmobility 	startTime 	11
scalar MyScenario.node[299].veinsmobility 	totalTime 	37
scalar MyScenario.node[299].veinsmobility 	stopTime 	49
scalar MyScenario.node[299].veinsmobility 	minSpeed 	6.1861324199401
scalar MyScenario.node[299].veinsmobility 	maxSpeed 	13.848839079915
scalar MyScenario.node[299].veinsmobility 	totalDistance 	466.62684738981
scalar MyScenario.node[299].veinsmobility 	totalCO2Emission 	91.759991903077
scalar MyScenario.node[134].appl 	generatedWSMs 	1
scalar MyScenario.node[134].appl 	receivedWSMs 	13
scalar MyScenario.node[134].appl 	generatedBSMs 	0
scalar MyScenario.node[134].appl 	receivedBSMs 	0
scalar MyScenario.node[134].appl 	generatedWSAs 	0
scalar MyScenario.node[134].appl 	receivedWSAs 	0
scalar MyScenario.node[134].nic.phy80211p 	busyTime 	0.00019333333333333
scalar MyScenario.node[134].nic.mac1609_4 	ReceivedUnicastPackets 	0
scalar MyScenario.node[134].nic.mac1609_4 	ReceivedBroadcasts 	13
scalar MyScenario.node[134].nic.mac1609_4 	SentPackets 	1
scalar MyScenario.node[134].nic.mac1609_4 	SNIRLostPackets 	27
scalar MyScenario.node[134].nic.mac1609_4 	RXTXLostPackets 	19
scalar MyScenario.node[134].nic.mac1609_4 	TotalLostPackets 	46
scalar MyScenario.node[134].nic.mac1609_4 	DroppedPacketsInMac 	0
scalar MyScenario.node[134].nic.mac1609_4 	TooLittleTime 	0
scalar MyScenario.node[134].nic.mac1609_4 	TimesIntoBackoff 	1
scalar MyScenario.node[134].nic.mac1609_4 	SlotsBackoff 	1
scalar MyScenario.node[134].nic.mac1609_4 	NumInternalContention 	0
scalar MyScenario.node[134].nic.mac1609_4 	totalBusyTime 	0.004177072072
scalar MyScenario.node[134].veinsmobility 	startTime 	1
scalar MyScenario.node[134].veinsmobility 	totalTime 	47
scalar MyScenario.node[134].veinsmobility 	stopTime 	49
scalar MyScenario.node[134].veinsmobility 	minSpeed 	1.4689687820617
scalar MyScenario.node[134].veinsmobility 	maxSpeed 	13.850044450001
scalar MyScenario.node[134].veinsmobility 	totalDistance 	559.95976550265
scalar MyScenario.node[134].veinsmobility 	totalCO2Emission 	149.65384562552
scalar MyScenario.node[195].appl 	generatedWSMs 	1
scalar MyScenario.node[195].appl 	receivedWSMs 	4
scalar MyScenario.node[195].appl 	generatedBSMs 	0
scalar MyScenario.node[195].appl 	receivedBSMs 	0
scalar MyScenario.node[195].appl 	generatedWSAs 	0
scalar MyScenario.node[195].appl 	receivedWSAs 	0
scalar MyScenario.node[195].nic.phy80211p 	busyTime 	0.00015151020408163
scalar MyScenario.node[195].nic.mac1609_4 	ReceivedUnicastPackets 	0
scalar MyScenario.node[195].nic.mac1609_4 	ReceivedBroadcasts 	4
scalar MyScenario.node[195].nic.mac1609_4 	SentPackets 	1
scalar MyScenario.node[195].nic.mac1609_4 	SNIRLostPackets 	28
scalar MyScenario.node[195].nic.mac1609_4 	RXTXLostPackets 	18
scalar MyScenario.node[195].nic.mac1609_4 	TotalLostPackets 	46
scalar MyScenario.node[195].nic.mac1609_4 	DroppedPacketsInMac 	0
scalar MyScenario.node[195].nic.mac1609_4 	TooLittleTime 	0
scalar MyScenario.node[195].nic.mac1609_4 	TimesIntoBackoff 	1
scalar MyScenario.node[195].nic.mac1609_4 	SlotsBackoff 	0
scalar MyScenario.node[195].nic.mac1609_4 	NumInternalContention 	0
scalar MyScenario.node[195].nic.mac1609_4 	totalBusyTime 	0.003017162865
scalar MyScenario.node[195].veinsmobility 	startTime 	1
scalar MyScenario.node[195].veinsmobility 	totalTime 	48
scalar MyScenario.node[195].veinsmobility 	stopTime 	50
scalar MyScenario.node[195].veinsmobility 	minSpeed 	0.019843742139342
scalar MyScenario.node[195].veinsmobility 	maxSpeed 	13.860044506914
scalar MyScenario.node[195].veinsmobility 	totalDistance 	468.8628865185
scalar MyScenario.node[195].veinsmobility 	totalCO2Emission 	145.84203550421
scalar MyScenario.node[155].appl 	generatedWSMs 	1
scalar MyScenario.node[155].appl 	receivedWSMs 	3
scalar MyScenario.node[155].appl 	generatedBSMs 	0
scalar MyScenario.node[155].appl 	receivedBSMs 	0
scalar MyScenario.node[155].appl 	generatedWSAs 	0
scalar MyScenario.node[155].appl 	receivedWSAs 	0
scalar MyScenario.node[155].nic.phy80211p 	busyTime 	0.00015776
scalar MyScenario.node[155].nic.mac1609_4 	ReceivedUnicastPackets 	0
scalar MyScenario.node[155].nic.mac1609_4 	ReceivedBroadcasts 	3
scalar MyScenario.node[155].nic.mac1609_4 	SentPackets 	1
scalar MyScenario.node[155].nic.mac1609_4 	SNIRLostPackets 	31
scalar MyScenario.node[155].nic.mac1609_4 	RXTXLostPackets 	8
scalar MyScenario.node[155].nic.mac1609_4 	TotalLostPackets 	39
scalar MyScenario.node[155].nic.mac1609_4 	DroppedPacketsInMac 	0
scalar MyScenario.node[155].nic.mac1609_4 	TooLittleTime 	0
scalar MyScenario.node[155].nic.mac1609_4 	TimesIntoBackoff 	1
scalar MyScenario.node[155].nic.mac1609_4 	SlotsBackoff 	3
scalar MyScenario.node[155].nic.mac1609_4 	NumInternalContention 	0
scalar MyScenario.node[155].nic.mac1609_4 	totalBusyTime 	0.00208904921
scalar MyScenario.node[155].veinsmobility 	startTime 	1
scalar MyScenario.node[155].veinsmobility 	totalTime 	49
scalar MyScenario.node[155].veinsmobility 	stopTime 	51
scalar MyScenario.node[155].veinsmobility 	minSpeed 	2.5730949706165
scalar MyScenario.node[155].veinsmobility 	maxSpeed 	13.882131264056
scalar MyScenario.node[155].veinsmobility 	totalDistance 	576.99180812235
scalar MyScenario.node[155].veinsmobility 	totalCO2Emission 	156.37293867825
scalar MyScenario.node[154].appl 	generatedWSMs 	1
scalar MyScenario.node[154].appl 	receivedWSMs 	1
scalar MyScenario.node[154].appl 	generatedBSMs 	0
scalar MyScenario.node[154].appl 	receivedBSMs 	0
scalar MyScenario.node[154].appl 	generatedWSAs 	0
scalar MyScenario.node[154].appl 	receivedWSAs 	0
scalar MyScenario.node[154].nic.phy80211p 	busyTime 	5.0039215686275e-05
scalar MyScenario.node[154].nic.mac1609_4 	ReceivedUnicastPackets 	0
scalar MyScenario.node[154].nic.mac1609_4 	ReceivedBroadcasts 	1
scalar MyScenario.node[154].nic.mac1609_4 	SentPackets 	1
scalar MyScenario.node[154].nic.mac1609_4 	SNIRLostPackets 	10
scalar MyScenario.node[154].nic.mac1609_4 	RXTXLostPackets 	9
scalar MyScenario.node[154].nic.mac1609_4 	TotalLostPackets 	19
scalar MyScenario.node[154].nic.mac1609_4 	DroppedPacketsInMac 	0
scalar MyScenario.node[154].nic.mac1609_4 	TooLittleTime 	0
scalar MyScenario.node[154].nic.mac1609_4 	TimesIntoBackoff 	1
scalar MyScenario.node[154].nic.mac1609_4 	SlotsBackoff 	3
scalar MyScenario.node[154].nic.mac1609_4 	NumInternalContention 	0
scalar MyScenario.node[154].nic.mac1609_4 	totalBusyTime 	0.000929084566
scalar MyScenario.node[154].veinsmobility 	startTime 	1
scalar MyScenario.node[154].veinsmobility 	totalTime 	50
scalar MyScenario.node[154].veinsmobility 	stopTime 	52
scalar MyScenario.node[154].veinsmobility 	minSpeed 	0.92470945573924
scalar MyScenario.node[154].veinsmobility 	maxSpeed 	13.858894511801
scalar MyScenario.node[154].veinsmobility 	totalDistance 	569.21764567044
scalar MyScenario.node[154].veinsmobility 	totalCO2Emission 	149.09835584242
scalar MyScenario.node[11].appl 	generatedWSMs 	0
scalar MyScenario.node[11].appl 	receivedWSMs 	0
scalar MyScenario.node[11].appl 	generatedBSMs 	0
scalar MyScenario.node[11].appl 	receivedBSMs 	0
scalar MyScenario.node[11].appl 	generatedWSAs 	0
scalar MyScenario.node[11].appl 	receivedWSAs 	0
scalar MyScenario.node[11].nic.phy80211p 	busyTime 	4.4615384615385e-06
scalar MyScenario.node[11].nic.mac1609_4 	ReceivedUnicastPackets 	0
scalar MyScenario.node[11].nic.mac1609_4 	ReceivedBroadcasts 	0
scalar MyScenario.node[11].nic.mac1609_4 	SentPackets 	0
scalar MyScenario.node[11].nic.mac1609_4 	SNIRLostPackets 	1
scalar MyScenario.node[11].nic.mac1609_4 	RXTXLostPackets 	0
scalar MyScenario.node[11].nic.mac1609_4 	TotalLostPackets 	1
scalar MyScenario.node[11].nic.mac1609_4 	DroppedPacketsInMac 	0
scalar MyScenario.node[11].nic.mac1609_4 	TooLittleTime 	0
scalar MyScenario.node[11].nic.mac1609_4 	TimesIntoBackoff 	0
scalar MyScenario.node[11].nic.mac1609_4 	SlotsBackoff 	0
scalar MyScenario.node[11].nic.mac1609_4 	NumInternalContention 	0
scalar MyScenario.node[11].nic.mac1609_4 	totalBusyTime 	0.000232
scalar MyScenario.node[11].veinsmobility 	startTime 	1
scalar MyScenario.node[11].veinsmobility 	totalTime 	51
scalar MyScenario.node[11].veinsmobility 	stopTime 	53
scalar MyScenario.node[11].veinsmobility 	minSpeed 	1.7808054109104
scalar MyScenario.node[11].veinsmobility 	maxSpeed 	13.833301374014
scalar MyScenario.node[11].veinsmobility 	totalDistance 	558.0942811873
scalar MyScenario.node[11].veinsmobility 	totalCO2Emission 	164.57012604934
scalar MyScenario.node[21].appl 	generatedWSMs 	0
scalar MyScenario.node[21].appl 	receivedWSMs 	0
scalar MyScenario.node[21].appl 	generatedBSMs 	0
scalar MyScenario.node[21].appl 	receivedBSMs 	0
scalar MyScenario.node[21].appl 	generatedWSAs 	0
scalar MyScenario.node[21].appl 	receivedWSAs 	0
scalar MyScenario.node[21].nic.phy80211p 	busyTime 	0.00014007547169811
scalar MyScenario.node[21].nic.mac1609_4 	ReceivedUnicastPackets 	0
scalar MyScenario.node[21].nic.mac1609_4 	ReceivedBroadcasts 	0
scalar MyScenario.node[21].nic.mac1609_4 	SentPackets 	0
scalar MyScenario.node[21].nic.mac1609_4 	SNIRLostPackets 	32
scalar MyScenario.node[21].nic.mac1609_4 	RXTXLostPackets 	0
scalar MyScenario.node[21].nic.mac1609_4 	TotalLostPackets 	32
scalar MyScenario.node[21].nic.mac1609_4 	DroppedPacketsInMac 	0
scalar MyScenario.node[21].nic.mac1609_4 	TooLittleTime 	0
scalar MyScenario.node[21].nic.mac1609_4 	TimesIntoBackoff 	0
scalar MyScenario.node[21].nic.mac1609_4 	SlotsBackoff 	0
scalar MyScenario.node[21].nic.mac1609_4 	NumInternalContention 	0
scalar MyScenario.node[21].nic.mac1609_4 	totalBusyTime 	0.001856
scalar MyScenario.node[21].veinsmobility 	startTime 	1
scalar MyScenario.node[21].veinsmobility 	totalTime 	52
scalar MyScenario.node[21].veinsmobility 	stopTime 	54
scalar MyScenario.node[21].veinsmobility 	minSpeed 	0.0021788275099615
scalar MyScenario.node[21].veinsmobility 	maxSpeed 	13.886725052889
scalar MyScenario.node[21].veinsmobility 	totalDistance 	463.0600685728
scalar MyScenario.node[21].veinsmobility 	totalCO2Emission 	177.52415834703
scalar MyScenario.node[123].appl 	generatedWSMs 	1
scalar MyScenario.node[123].appl 	receivedWSMs 	2
scalar MyScenario.node[123].appl 	generatedBSMs 	0
scalar MyScenario.node[123].appl 	receivedBSMs 	0
scalar MyScenario.node[123].appl 	generatedWSAs 	0
scalar MyScenario.node[123].appl 	receivedWSAs 	0
scalar MyScenario.node[123].nic.phy80211p 	busyTime 	0.00014007547169811
scalar MyScenario.node[123].nic.mac1609_4 	ReceivedUnicastPackets 	0
scalar MyScenario.node[123].nic.mac1609_4 	ReceivedBroadcasts 	2
scalar MyScenario.node[123].nic.mac1609_4 	SentPackets 	1
scalar MyScenario.node[123].nic.mac1609_4 	SNIRLostPackets 	30
scalar MyScenario.node[123].nic.mac1609_4 	RXTXLostPackets 	9
scalar MyScenario.node[123].nic.mac1609_4 	TotalLostPackets 	39
scalar MyScenario.node[123].nic.mac1609_4 	DroppedPacketsInMac 	0
scalar MyScenario.node[123].nic.mac1609_4 	TooLittleTime 	0
scalar MyScenario.node[123].nic.mac1609_4 	TimesIntoBackoff 	1
scalar MyScenario.node[123].nic.mac1609_4 	SlotsBackoff 	2
scalar MyScenario.node[123].nic.mac1609_4 	NumInternalContention 	0
scalar MyScenario.node[123].nic.mac1609_4 	totalBusyTime 	0.002321220512
scalar MyScenario.node[123].veinsmobility 	startTime 	1
scalar MyScenario.node[123].veinsmobility 	totalTime 	52
scalar MyScenario.node[123].veinsmobility 	stopTime 	54
scalar MyScenario.node[123].veinsmobility 	minSpeed 	0.00037898272679502
scalar MyScenario.node[123].veinsmobility 	maxSpeed 	13.860985198012
scalar MyScenario.node[123].veinsmobility 	totalDistance 	458.75993212727
scalar MyScenario.node[123].veinsmobility 	totalCO2Emission 	150.17107657664
scalar MyScenario.node[239].appl 	generatedWSMs 	0
scalar MyScenario.node[239].appl 	receivedWSMs 	0
scalar MyScenario.node[239].appl 	generatedBSMs 	0
scalar MyScenario.node[239].appl 	receivedBSMs 	0
scalar MyScenario.node[239].appl 	generatedWSAs 	0
scalar MyScenario.node[239].appl 	receivedWSAs 	0
scalar MyScenario.node[239].nic.phy80211p 	busyTime 	6.032e-05
scalar MyScenario.node[239].nic.mac1609_4 	ReceivedUnicastPackets 	0
scalar MyScenario.node[239].nic.mac1609_4 	ReceivedBroadcasts 	0
scalar MyScenario.node[239].nic.mac1609_4 	SentPackets 	0
scalar MyScenario.node[239].nic.mac1609_4 	SNIRLostPackets 	13
scalar MyScenario.node[239].nic.mac1609_4 	RXTXLostPackets 	0
scalar MyScenario.node[239].nic.mac1609_4 	TotalLostPackets 	13
scalar MyScenario.node[239].nic.mac1609_4 	DroppedPacketsInMac 	0
scalar MyScenario.node[239].nic.mac1609_4 	TooLittleTime 	0
scalar MyScenario.node[239].nic.mac1609_4 	TimesIntoBackoff 	0
scalar MyScenario.node[239].nic.mac1609_4 	SlotsBackoff 	0
scalar MyScenario.node[239].nic.mac1609_4 	NumInternalContention 	0
scalar MyScenario.node[239].nic.mac1609_4 	totalBusyTime 	0.00116
scalar MyScenario.node[239].veinsmobility 	startTime 	4
scalar MyScenario.node[239].veinsmobility 	totalTime 	49
scalar MyScenario.node[239].veinsmobility 	stopTime 	54
scalar MyScenario.node[239].veinsmobility 	minSpeed 	2.1070023180684
scalar MyScenario.node[239].veinsmobility 	maxSpeed 	13.894777967082
scalar MyScenario.node[239].veinsmobility 	totalDistance 	569.86386731821
scalar MyScenario.node[239].veinsmobility 	totalCO2Emission 	159.63389808729
scalar MyScenario.node[161].appl 	generatedWSMs 	1
scalar MyScenario.node[161].appl 	receivedWSMs 	8
scalar MyScenario.node[161].appl 	generatedBSMs 	0
scalar MyScenario.node[161].appl 	receivedBSMs 	0
scalar MyScenario.node[161].appl 	generatedWSAs 	0
scalar MyScenario.node[161].appl 	receivedWSAs 	0
scalar MyScenario.node[161].nic.phy80211p 	busyTime 	0.00012694339622641
scalar MyScenario.node[161].nic.mac1609_4 	ReceivedUnicastPackets 	0
scalar MyScenario.node[161].nic.mac1609_4 	ReceivedBroadcasts 	8
scalar MyScenario.node[161].nic.mac1609_4 	SentPackets 	1
scalar MyScenario.node[161].nic.mac1609_4 	SNIRLostPackets 	21
scalar MyScenario.node[161].nic.mac1609_4 	RXTXLostPackets 	14
scalar MyScenario.node[161].nic.mac1609_4 	TotalLostPackets 	35
scalar MyScenario.node[161].nic.mac1609_4 	DroppedPacketsInMac 	0
scalar MyScenario.node[161].nic.mac1609_4 	TooLittleTime 	0
scalar MyScenario.node[161].nic.mac1609_4 	TimesIntoBackoff 	1
scalar MyScenario.node[161].nic.mac1609_4 	SlotsBackoff 	1
scalar MyScenario.node[161].nic.mac1609_4 	NumInternalContention 	0
scalar MyScenario.node[161].nic.mac1609_4 	totalBusyTime 	0.003481058623
scalar MyScenario.node[161].veinsmobility 	startTime 	1
scalar MyScenario.node[161].veinsmobility 	totalTime 	52
scalar MyScenario.node[161].veinsmobility 	stopTime 	54
scalar MyScenario.node[161].veinsmobility 	minSpeed 	1.5281447483692
scalar MyScenario.node[161].veinsmobility 	maxSpeed 	13.870925095188
scalar MyScenario.node[161].veinsmobility 	totalDistance 	572.5303062022
scalar MyScenario.node[161].veinsmobility 	totalCO2Emission 	176.95582854711
scalar MyScenario.node[121].appl 	generatedWSMs 	1
scalar MyScenario.node[121].appl 	receivedWSMs 	2
scalar MyScenario.node[121].appl 	generatedBSMs 	0
scalar MyScenario.node[121].appl 	receivedBSMs 	0
scalar MyScenario.node[121].appl 	generatedWSAs 	0
scalar MyScenario.node[121].appl 	receivedWSAs 	0
scalar MyScenario.node[121].nic.phy80211p 	busyTime 	0.00014007547169811
scalar MyScenario.node[121].nic.mac1609_4 	ReceivedUnicastPackets 	0
scalar MyScenario.node[121].nic.mac1609_4 	ReceivedBroadcasts 	2
scalar MyScenario.node[121].nic.mac1609_4 	SentPackets 	1
scalar MyScenario.node[121].nic.mac1609_4 	SNIRLostPackets 	30
scalar MyScenario.node[121].nic.mac1609_4 	RXTXLostPackets 	12
scalar MyScenario.node[121].nic.mac1609_4 	TotalLostPackets 	42
scalar MyScenario.node[121].nic.mac1609_4 	DroppedPacketsInMac 	0
scalar MyScenario.node[121].nic.mac1609_4 	TooLittleTime 	0
scalar MyScenario.node[121].nic.mac1609_4 	TimesIntoBackoff 	1
scalar MyScenario.node[121].nic.mac1609_4 	SlotsBackoff 	3
scalar MyScenario.node[121].nic.mac1609_4 	NumInternalContention 	0
scalar MyScenario.node[121].nic.mac1609_4 	totalBusyTime 	0.001857118276
scalar MyScenario.node[121].veinsmobility 	startTime 	1
scalar MyScenario.node[121].veinsmobility 	totalTime 	52
scalar MyScenario.node[121].veinsmobility 	stopTime 	54
scalar MyScenario.node[121].veinsmobility 	minSpeed 	1.6907087318996e-12
scalar MyScenario.node[121].veinsmobility 	maxSpeed 	13.813619103073
scalar MyScenario.node[121].veinsmobility 	totalDistance 	377.97739793402
scalar MyScenario.node[121].veinsmobility 	totalCO2Emission 	131.85744373743
scalar MyScenario.node[182].appl 	generatedWSMs 	1
scalar MyScenario.node[182].appl 	receivedWSMs 	2
scalar MyScenario.node[182].appl 	generatedBSMs 	0
scalar MyScenario.node[182].appl 	receivedBSMs 	0
scalar MyScenario.node[182].appl 	generatedWSAs 	0
scalar MyScenario.node[182].appl 	receivedWSAs 	0
scalar MyScenario.node[182].nic.phy80211p 	busyTime 	0.0001202962962963
scalar MyScenario.node[182].nic.mac1609_4 	ReceivedUnicastPackets 	0
scalar MyScenario.node[182].nic.mac1609_4 	ReceivedBroadcasts 	2
scalar MyScenario.node[182].nic.mac1609_4 	SentPackets 	1
scalar MyScenario.node[182].nic.mac1609_4 	SNIRLostPackets 	26
scalar MyScenario.node[182].nic.mac1609_4 	RXTXLostPackets 	7
scalar MyScenario.node[182].nic.mac1609_4 	TotalLostPackets 	33
scalar MyScenario.node[182].nic.mac1609_4 	DroppedPacketsInMac 	0
scalar MyScenario.node[182].nic.mac1609_4 	TooLittleTime 	0
scalar MyScenario.node[182].nic.mac1609_4 	TimesIntoBackoff 	1
scalar MyScenario.node[182].nic.mac1609_4 	SlotsBackoff 	1
scalar MyScenario.node[182].nic.mac1609_4 	NumInternalContention 	0
scalar MyScenario.node[182].nic.mac1609_4 	totalBusyTime 	0.001625202671
scalar MyScenario.node[182].veinsmobility 	startTime 	1
scalar MyScenario.node[182].veinsmobility 	totalTime 	53
scalar MyScenario.node[182].veinsmobility 	stopTime 	55
scalar MyScenario.node[182].veinsmobility 	minSpeed 	0.04398369328524
scalar MyScenario.node[182].veinsmobility 	maxSpeed 	13.878983819019
scalar MyScenario.node[182].veinsmobility 	totalDistance 	565.9772612757
scalar MyScenario.node[182].veinsmobility 	totalCO2Emission 	161.02827730495
scalar MyScenario.node[272].appl 	generatedWSMs 	1
scalar MyScenario.node[272].appl 	receivedWSMs 	8
scalar MyScenario.node[272].appl 	generatedBSMs 	0
scalar MyScenario.node[272].appl 	receivedBSMs 	0
scalar MyScenario.node[272].appl 	generatedWSAs 	0
scalar MyScenario.node[272].appl 	receivedWSAs 	0
scalar MyScenario.node[272].nic.phy80211p 	busyTime 	0.00013647058823529
scalar MyScenario.node[272].nic.mac1609_4 	ReceivedUnicastPackets 	0
scalar MyScenario.node[272].nic.mac1609_4 	ReceivedBroadcasts 	8
scalar MyScenario.node[272].nic.mac1609_4 	SentPackets 	1
scalar MyScenario.node[272].nic.mac1609_4 	SNIRLostPackets 	22
scalar MyScenario.node[272].nic.mac1609_4 	RXTXLostPackets 	12
scalar MyScenario.node[272].nic.mac1609_4 	TotalLostPackets 	34
scalar MyScenario.node[272].nic.mac1609_4 	DroppedPacketsInMac 	0
scalar MyScenario.node[272].nic.mac1609_4 	TooLittleTime 	0
scalar MyScenario.node[272].nic.mac1609_4 	TimesIntoBackoff 	1
scalar MyScenario.node[272].nic.mac1609_4 	SlotsBackoff 	1
scalar MyScenario.node[272].nic.mac1609_4 	NumInternalContention 	0
scalar MyScenario.node[272].nic.mac1609_4 	totalBusyTime 	0.003481174754
scalar MyScenario.node[272].veinsmobility 	startTime 	4
scalar MyScenario.node[272].veinsmobility 	totalTime 	50
scalar MyScenario.node[272].veinsmobility 	stopTime 	55
scalar MyScenario.node[272].veinsmobility 	minSpeed 	0
scalar MyScenario.node[272].veinsmobility 	maxSpeed 	13.886755357194
scalar MyScenario.node[272].veinsmobility 	totalDistance 	276.93423589323
scalar MyScenario.node[272].veinsmobility 	totalCO2Emission 	117.00955876589
scalar MyScenario.node[205].appl 	generatedWSMs 	0
scalar MyScenario.node[205].appl 	receivedWSMs 	0
[...]
scalar MyScenario.node[12].nic.mac1609_4 	TooLittleTime 	0
scalar MyScenario.node[12].nic.mac1609_4 	TimesIntoBackoff 	1
scalar MyScenario.node[12].nic.mac1609_4 	SlotsBackoff 	1
scalar MyScenario.node[12].nic.mac1609_4 	NumInternalContention 	0
scalar MyScenario.node[12].nic.mac1609_4 	totalBusyTime 	0.006033149808
scalar MyScenario.node[12].veinsmobility 	startTime 	1
scalar MyScenario.node[12].veinsmobility 	totalTime 	143
scalar MyScenario.node[12].veinsmobility 	stopTime 	145
scalar MyScenario.node[12].veinsmobility 	minSpeed 	2.7155311060905e-15
scalar MyScenario.node[12].veinsmobility 	maxSpeed 	13.87283687673
scalar MyScenario.node[12].veinsmobility 	totalDistance 	1264.3213172195
scalar MyScenario.node[12].veinsmobility 	totalCO2Emission 	333.56695325466
scalar MyScenario.node[274].appl 	generatedWSMs 	1
scalar MyScenario.node[274].appl 	receivedWSMs 	12
scalar MyScenario.node[274].appl 	generatedBSMs 	0
scalar MyScenario.node[274].appl 	receivedBSMs 	0
scalar MyScenario.node[274].appl 	generatedWSAs 	0
scalar MyScenario.node[274].appl 	receivedWSAs 	0
scalar MyScenario.node[274].nic.phy80211p 	busyTime 	5.2281690140845e-05
scalar MyScenario.node[274].nic.mac1609_4 	ReceivedUnicastPackets 	0
scalar MyScenario.node[274].nic.mac1609_4 	ReceivedBroadcasts 	12
scalar MyScenario.node[274].nic.mac1609_4 	SentPackets 	1
scalar MyScenario.node[274].nic.mac1609_4 	SNIRLostPackets 	20
scalar MyScenario.node[274].nic.mac1609_4 	RXTXLostPackets 	1
scalar MyScenario.node[274].nic.mac1609_4 	TotalLostPackets 	21
scalar MyScenario.node[274].nic.mac1609_4 	DroppedPacketsInMac 	0
scalar MyScenario.node[274].nic.mac1609_4 	TooLittleTime 	0
scalar MyScenario.node[274].nic.mac1609_4 	TimesIntoBackoff 	1
scalar MyScenario.node[274].nic.mac1609_4 	SlotsBackoff 	2
scalar MyScenario.node[274].nic.mac1609_4 	NumInternalContention 	0
scalar MyScenario.node[274].nic.mac1609_4 	totalBusyTime 	0.004177000008
scalar MyScenario.node[274].veinsmobility 	startTime 	4
scalar MyScenario.node[274].veinsmobility 	totalTime 	141
scalar MyScenario.node[274].veinsmobility 	stopTime 	146
scalar MyScenario.node[274].veinsmobility 	minSpeed 	0.010665505000575
scalar MyScenario.node[274].veinsmobility 	maxSpeed 	13.843476218544
scalar MyScenario.node[274].veinsmobility 	totalDistance 	1479.0414478335
scalar MyScenario.node[274].veinsmobility 	totalCO2Emission 	434.33668179452
scalar MyScenario.node[36].appl 	generatedWSMs 	1
scalar MyScenario.node[36].appl 	receivedWSMs 	9
scalar MyScenario.node[36].appl 	generatedBSMs 	0
scalar MyScenario.node[36].appl 	receivedBSMs 	0
scalar MyScenario.node[36].appl 	generatedWSAs 	0
scalar MyScenario.node[36].appl 	receivedWSAs 	0
scalar MyScenario.node[36].nic.phy80211p 	busyTime 	7.9945945945946e-05
scalar MyScenario.node[36].nic.mac1609_4 	ReceivedUnicastPackets 	0
scalar MyScenario.node[36].nic.mac1609_4 	ReceivedBroadcasts 	9
scalar MyScenario.node[36].nic.mac1609_4 	SentPackets 	1
scalar MyScenario.node[36].nic.mac1609_4 	SNIRLostPackets 	42
scalar MyScenario.node[36].nic.mac1609_4 	RXTXLostPackets 	0
scalar MyScenario.node[36].nic.mac1609_4 	TotalLostPackets 	42
scalar MyScenario.node[36].nic.mac1609_4 	DroppedPacketsInMac 	0
scalar MyScenario.node[36].nic.mac1609_4 	TooLittleTime 	0
scalar MyScenario.node[36].nic.mac1609_4 	TimesIntoBackoff 	1
scalar MyScenario.node[36].nic.mac1609_4 	SlotsBackoff 	0
scalar MyScenario.node[36].nic.mac1609_4 	NumInternalContention 	0
scalar MyScenario.node[36].nic.mac1609_4 	totalBusyTime 	0.004409
scalar MyScenario.node[36].veinsmobility 	startTime 	1
scalar MyScenario.node[36].veinsmobility 	totalTime 	147
scalar MyScenario.node[36].veinsmobility 	stopTime 	149
scalar MyScenario.node[36].veinsmobility 	minSpeed 	0.00070501560285752
scalar MyScenario.node[36].veinsmobility 	maxSpeed 	13.845597384009
scalar MyScenario.node[36].veinsmobility 	totalDistance 	1270.2734790872
scalar MyScenario.node[36].veinsmobility 	totalCO2Emission 	452.96845241792
scalar MyScenario.node[58].appl 	generatedWSMs 	1
scalar MyScenario.node[58].appl 	receivedWSMs 	1
scalar MyScenario.node[58].appl 	generatedBSMs 	0
scalar MyScenario.node[58].appl 	receivedBSMs 	0
scalar MyScenario.node[58].appl 	generatedWSAs 	0
scalar MyScenario.node[58].appl 	receivedWSAs 	0
scalar MyScenario.node[58].nic.phy80211p 	busyTime 	1.5466666666667e-06
scalar MyScenario.node[58].nic.mac1609_4 	ReceivedUnicastPackets 	0
scalar MyScenario.node[58].nic.mac1609_4 	ReceivedBroadcasts 	1
scalar MyScenario.node[58].nic.mac1609_4 	SentPackets 	1
scalar MyScenario.node[58].nic.mac1609_4 	SNIRLostPackets 	0
scalar MyScenario.node[58].nic.mac1609_4 	RXTXLostPackets 	4
scalar MyScenario.node[58].nic.mac1609_4 	TotalLostPackets 	4
scalar MyScenario.node[58].nic.mac1609_4 	DroppedPacketsInMac 	0
scalar MyScenario.node[58].nic.mac1609_4 	TooLittleTime 	0
scalar MyScenario.node[58].nic.mac1609_4 	TimesIntoBackoff 	1
scalar MyScenario.node[58].nic.mac1609_4 	SlotsBackoff 	0
scalar MyScenario.node[58].nic.mac1609_4 	NumInternalContention 	0
scalar MyScenario.node[58].nic.mac1609_4 	totalBusyTime 	0.000465087287
scalar MyScenario.node[58].veinsmobility 	startTime 	1
scalar MyScenario.node[58].veinsmobility 	totalTime 	149
scalar MyScenario.node[58].veinsmobility 	stopTime 	151
scalar MyScenario.node[58].veinsmobility 	minSpeed 	1.1650203847486e-09
scalar MyScenario.node[58].veinsmobility 	maxSpeed 	13.778639005753
scalar MyScenario.node[58].veinsmobility 	totalDistance 	953.45114074414
scalar MyScenario.node[58].veinsmobility 	totalCO2Emission 	368.51805944099
scalar MyScenario.node[297].appl 	generatedWSMs 	1
scalar MyScenario.node[297].appl 	receivedWSMs 	11
scalar MyScenario.node[297].appl 	generatedBSMs 	0
scalar MyScenario.node[297].appl 	receivedBSMs 	0
scalar MyScenario.node[297].appl 	generatedWSAs 	0
scalar MyScenario.node[297].appl 	receivedWSAs 	0
scalar MyScenario.node[297].nic.phy80211p 	busyTime 	3.3833333333333e-05
scalar MyScenario.node[297].nic.mac1609_4 	ReceivedUnicastPackets 	0
scalar MyScenario.node[297].nic.mac1609_4 	ReceivedBroadcasts 	11
scalar MyScenario.node[297].nic.mac1609_4 	SentPackets 	1
scalar MyScenario.node[297].nic.mac1609_4 	SNIRLostPackets 	10
scalar MyScenario.node[297].nic.mac1609_4 	RXTXLostPackets 	18
scalar MyScenario.node[297].nic.mac1609_4 	TotalLostPackets 	28
scalar MyScenario.node[297].nic.mac1609_4 	DroppedPacketsInMac 	0
scalar MyScenario.node[297].nic.mac1609_4 	TooLittleTime 	0
scalar MyScenario.node[297].nic.mac1609_4 	TimesIntoBackoff 	1
scalar MyScenario.node[297].nic.mac1609_4 	SlotsBackoff 	3
scalar MyScenario.node[297].nic.mac1609_4 	NumInternalContention 	0
scalar MyScenario.node[297].nic.mac1609_4 	totalBusyTime 	0.003945176383
scalar MyScenario.node[297].veinsmobility 	startTime 	10
scalar MyScenario.node[297].veinsmobility 	totalTime 	143
scalar MyScenario.node[297].veinsmobility 	stopTime 	154
scalar MyScenario.node[297].veinsmobility 	minSpeed 	0
scalar MyScenario.node[297].veinsmobility 	maxSpeed 	13.899891346414
scalar MyScenario.node[297].veinsmobility 	totalDistance 	1166.4719360574
scalar MyScenario.node[297].veinsmobility 	totalCO2Emission 	422.58941029481
scalar MyScenario.node[84].appl 	generatedWSMs 	1
scalar MyScenario.node[84].appl 	receivedWSMs 	11
scalar MyScenario.node[84].appl 	generatedBSMs 	0
scalar MyScenario.node[84].appl 	receivedBSMs 	0
scalar MyScenario.node[84].appl 	generatedWSAs 	0
scalar MyScenario.node[84].appl 	receivedWSAs 	0
scalar MyScenario.node[84].nic.phy80211p 	busyTime 	3.8916129032258e-05
scalar MyScenario.node[84].nic.mac1609_4 	ReceivedUnicastPackets 	0
scalar MyScenario.node[84].nic.mac1609_4 	ReceivedBroadcasts 	11
scalar MyScenario.node[84].nic.mac1609_4 	SentPackets 	1
scalar MyScenario.node[84].nic.mac1609_4 	SNIRLostPackets 	15
scalar MyScenario.node[84].nic.mac1609_4 	RXTXLostPackets 	12
scalar MyScenario.node[84].nic.mac1609_4 	TotalLostPackets 	27
scalar MyScenario.node[84].nic.mac1609_4 	DroppedPacketsInMac 	0
scalar MyScenario.node[84].nic.mac1609_4 	TooLittleTime 	0
scalar MyScenario.node[84].nic.mac1609_4 	TimesIntoBackoff 	1
scalar MyScenario.node[84].nic.mac1609_4 	SlotsBackoff 	1
scalar MyScenario.node[84].nic.mac1609_4 	NumInternalContention 	0
scalar MyScenario.node[84].nic.mac1609_4 	totalBusyTime 	0.004409097591
scalar MyScenario.node[84].veinsmobility 	startTime 	1
scalar MyScenario.node[84].veinsmobility 	totalTime 	154
scalar MyScenario.node[84].veinsmobility 	stopTime 	156
scalar MyScenario.node[84].veinsmobility 	minSpeed 	0.0012996114371208
scalar MyScenario.node[84].veinsmobility 	maxSpeed 	13.885389700579
scalar MyScenario.node[84].veinsmobility 	totalDistance 	1677.6772707338
scalar MyScenario.node[84].veinsmobility 	totalCO2Emission 	490.07668010669
scalar MyScenario.node[200].appl 	generatedWSMs 	1
scalar MyScenario.node[200].appl 	receivedWSMs 	2
scalar MyScenario.node[200].appl 	generatedBSMs 	0
scalar MyScenario.node[200].appl 	receivedBSMs 	0
scalar MyScenario.node[200].appl 	generatedWSAs 	0
scalar MyScenario.node[200].appl 	receivedWSAs 	0
scalar MyScenario.node[200].nic.phy80211p 	busyTime 	2.8819875776398e-05
scalar MyScenario.node[200].nic.mac1609_4 	ReceivedUnicastPackets 	0
scalar MyScenario.node[200].nic.mac1609_4 	ReceivedBroadcasts 	2
scalar MyScenario.node[200].nic.mac1609_4 	SentPackets 	1
scalar MyScenario.node[200].nic.mac1609_4 	SNIRLostPackets 	18
scalar MyScenario.node[200].nic.mac1609_4 	RXTXLostPackets 	13
scalar MyScenario.node[200].nic.mac1609_4 	TotalLostPackets 	31
scalar MyScenario.node[200].nic.mac1609_4 	DroppedPacketsInMac 	0
scalar MyScenario.node[200].nic.mac1609_4 	TooLittleTime 	0
scalar MyScenario.node[200].nic.mac1609_4 	TimesIntoBackoff 	1
scalar MyScenario.node[200].nic.mac1609_4 	SlotsBackoff 	2
scalar MyScenario.node[200].nic.mac1609_4 	NumInternalContention 	0
scalar MyScenario.node[200].nic.mac1609_4 	totalBusyTime 	0.001857082987
scalar MyScenario.node[200].veinsmobility 	startTime 	1
scalar MyScenario.node[200].veinsmobility 	totalTime 	160
scalar MyScenario.node[200].veinsmobility 	stopTime 	162
scalar MyScenario.node[200].veinsmobility 	minSpeed 	2.4132713839761e-15
scalar MyScenario.node[200].veinsmobility 	maxSpeed 	13.879666264588
scalar MyScenario.node[200].veinsmobility 	totalDistance 	1272.9577418175
scalar MyScenario.node[200].veinsmobility 	totalCO2Emission 	396.99370138569
scalar MyScenario.node[283].appl 	generatedWSMs 	1
scalar MyScenario.node[283].appl 	receivedWSMs 	1
scalar MyScenario.node[283].appl 	generatedBSMs 	0
scalar MyScenario.node[283].appl 	receivedBSMs 	0
scalar MyScenario.node[283].appl 	generatedWSAs 	0
scalar MyScenario.node[283].appl 	receivedWSAs 	0
scalar MyScenario.node[283].nic.phy80211p 	busyTime 	2.6430379746835e-05
scalar MyScenario.node[283].nic.mac1609_4 	ReceivedUnicastPackets 	0
scalar MyScenario.node[283].nic.mac1609_4 	ReceivedBroadcasts 	1
scalar MyScenario.node[283].nic.mac1609_4 	SentPackets 	1
scalar MyScenario.node[283].nic.mac1609_4 	SNIRLostPackets 	17
scalar MyScenario.node[283].nic.mac1609_4 	RXTXLostPackets 	13
scalar MyScenario.node[283].nic.mac1609_4 	TotalLostPackets 	30
scalar MyScenario.node[283].nic.mac1609_4 	DroppedPacketsInMac 	0
scalar MyScenario.node[283].nic.mac1609_4 	TooLittleTime 	0
scalar MyScenario.node[283].nic.mac1609_4 	TimesIntoBackoff 	1
scalar MyScenario.node[283].nic.mac1609_4 	SlotsBackoff 	0
scalar MyScenario.node[283].nic.mac1609_4 	NumInternalContention 	0
scalar MyScenario.node[283].nic.mac1609_4 	totalBusyTime 	0.001625102103
scalar MyScenario.node[283].veinsmobility 	startTime 	7
scalar MyScenario.node[283].veinsmobility 	totalTime 	157
scalar MyScenario.node[283].veinsmobility 	stopTime 	165
scalar MyScenario.node[283].veinsmobility 	minSpeed 	0
scalar MyScenario.node[283].veinsmobility 	maxSpeed 	13.897341169813
scalar MyScenario.node[283].veinsmobility 	totalDistance 	1267.0524011786
scalar MyScenario.node[283].veinsmobility 	totalCO2Emission 	413.29988330152
scalar MyScenario.node[170].appl 	generatedWSMs 	1
scalar MyScenario.node[170].appl 	receivedWSMs 	11
scalar MyScenario.node[170].appl 	generatedBSMs 	0
scalar MyScenario.node[170].appl 	receivedBSMs 	0
scalar MyScenario.node[170].appl 	generatedWSAs 	0
scalar MyScenario.node[170].appl 	receivedWSAs 	0
scalar MyScenario.node[170].nic.phy80211p 	busyTime 	4.1676646706587e-05
scalar MyScenario.node[170].nic.mac1609_4 	ReceivedUnicastPackets 	0
scalar MyScenario.node[170].nic.mac1609_4 	ReceivedBroadcasts 	11
scalar MyScenario.node[170].nic.mac1609_4 	SentPackets 	1
scalar MyScenario.node[170].nic.mac1609_4 	SNIRLostPackets 	19
scalar MyScenario.node[170].nic.mac1609_4 	RXTXLostPackets 	20
scalar MyScenario.node[170].nic.mac1609_4 	TotalLostPackets 	39
scalar MyScenario.node[170].nic.mac1609_4 	DroppedPacketsInMac 	0
scalar MyScenario.node[170].nic.mac1609_4 	TooLittleTime 	0
scalar MyScenario.node[170].nic.mac1609_4 	TimesIntoBackoff 	1
scalar MyScenario.node[170].nic.mac1609_4 	SlotsBackoff 	1
scalar MyScenario.node[170].nic.mac1609_4 	NumInternalContention 	0
scalar MyScenario.node[170].nic.mac1609_4 	totalBusyTime 	0.004177061689
scalar MyScenario.node[170].veinsmobility 	startTime 	1
scalar MyScenario.node[170].veinsmobility 	totalTime 	166
scalar MyScenario.node[170].veinsmobility 	stopTime 	168
scalar MyScenario.node[170].veinsmobility 	minSpeed 	6.6698849847931e-08
scalar MyScenario.node[170].veinsmobility 	maxSpeed 	13.887415418681
scalar MyScenario.node[170].veinsmobility 	totalDistance 	1466.8580150313
scalar MyScenario.node[170].veinsmobility 	totalCO2Emission 	492.30689454104
scalar MyScenario.node[150].appl 	generatedWSMs 	0
scalar MyScenario.node[150].appl 	receivedWSMs 	0
scalar MyScenario.node[150].appl 	generatedBSMs 	0
scalar MyScenario.node[150].appl 	receivedBSMs 	0
scalar MyScenario.node[150].appl 	generatedWSAs 	0
scalar MyScenario.node[150].appl 	receivedWSAs 	0
scalar MyScenario.node[150].nic.phy80211p 	busyTime 	8.0462427745665e-06
scalar MyScenario.node[150].nic.mac1609_4 	ReceivedUnicastPackets 	0
scalar MyScenario.node[150].nic.mac1609_4 	ReceivedBroadcasts 	0
scalar MyScenario.node[150].nic.mac1609_4 	SentPackets 	0
scalar MyScenario.node[150].nic.mac1609_4 	SNIRLostPackets 	6
scalar MyScenario.node[150].nic.mac1609_4 	RXTXLostPackets 	0
scalar MyScenario.node[150].nic.mac1609_4 	TotalLostPackets 	6
scalar MyScenario.node[150].nic.mac1609_4 	DroppedPacketsInMac 	0
scalar MyScenario.node[150].nic.mac1609_4 	TooLittleTime 	0
scalar MyScenario.node[150].nic.mac1609_4 	TimesIntoBackoff 	0
scalar MyScenario.node[150].nic.mac1609_4 	SlotsBackoff 	0
scalar MyScenario.node[150].nic.mac1609_4 	NumInternalContention 	0
scalar MyScenario.node[150].nic.mac1609_4 	totalBusyTime 	0.000464
scalar MyScenario.node[150].veinsmobility 	startTime 	1
scalar MyScenario.node[150].veinsmobility 	totalTime 	172
scalar MyScenario.node[150].veinsmobility 	stopTime 	174
scalar MyScenario.node[150].veinsmobility 	minSpeed 	1.2674671066981e-07
scalar MyScenario.node[150].veinsmobility 	maxSpeed 	13.788849222055
scalar MyScenario.node[150].veinsmobility 	totalDistance 	1272.9155134342
scalar MyScenario.node[150].veinsmobility 	totalCO2Emission 	487.09539113853
scalar MyScenario.node[165].appl 	generatedWSMs 	1
scalar MyScenario.node[165].appl 	receivedWSMs 	1
scalar MyScenario.node[165].appl 	generatedBSMs 	0
scalar MyScenario.node[165].appl 	receivedBSMs 	0
scalar MyScenario.node[165].appl 	generatedWSAs 	0
scalar MyScenario.node[165].appl 	receivedWSAs 	0
scalar MyScenario.node[165].nic.phy80211p 	busyTime 	5.3028571428571e-06
scalar MyScenario.node[165].nic.mac1609_4 	ReceivedUnicastPackets 	0
scalar MyScenario.node[165].nic.mac1609_4 	ReceivedBroadcasts 	1
scalar MyScenario.node[165].nic.mac1609_4 	SentPackets 	1
scalar MyScenario.node[165].nic.mac1609_4 	SNIRLostPackets 	3
scalar MyScenario.node[165].nic.mac1609_4 	RXTXLostPackets 	4
scalar MyScenario.node[165].nic.mac1609_4 	TotalLostPackets 	7
scalar MyScenario.node[165].nic.mac1609_4 	DroppedPacketsInMac 	0
scalar MyScenario.node[165].nic.mac1609_4 	TooLittleTime 	0
scalar MyScenario.node[165].nic.mac1609_4 	TimesIntoBackoff 	1
scalar MyScenario.node[165].nic.mac1609_4 	SlotsBackoff 	3
scalar MyScenario.node[165].nic.mac1609_4 	NumInternalContention 	0
scalar MyScenario.node[165].nic.mac1609_4 	totalBusyTime 	0.000697068123
scalar MyScenario.node[165].veinsmobility 	startTime 	1
scalar MyScenario.node[165].veinsmobility 	totalTime 	174
scalar MyScenario.node[165].veinsmobility 	stopTime 	176
scalar MyScenario.node[165].veinsmobility 	minSpeed 	8.6281361861983e-13
scalar MyScenario.node[165].veinsmobility 	maxSpeed 	13.897401153087
scalar MyScenario.node[165].veinsmobility 	totalDistance 	1161.5739124215
scalar MyScenario.node[165].veinsmobility 	totalCO2Emission 	480.68675502886
scalar MyScenario.node[248].appl 	generatedWSMs 	1
scalar MyScenario.node[248].appl 	receivedWSMs 	1
scalar MyScenario.node[248].appl 	generatedBSMs 	0
scalar MyScenario.node[248].appl 	receivedBSMs 	0
scalar MyScenario.node[248].appl 	generatedWSAs 	0
scalar MyScenario.node[248].appl 	receivedWSAs 	0
scalar MyScenario.node[248].nic.phy80211p 	busyTime 	1.9226519337017e-05
scalar MyScenario.node[248].nic.mac1609_4 	ReceivedUnicastPackets 	0
scalar MyScenario.node[248].nic.mac1609_4 	ReceivedBroadcasts 	1
scalar MyScenario.node[248].nic.mac1609_4 	SentPackets 	1
scalar MyScenario.node[248].nic.mac1609_4 	SNIRLostPackets 	14
scalar MyScenario.node[248].nic.mac1609_4 	RXTXLostPackets 	14
scalar MyScenario.node[248].nic.mac1609_4 	TotalLostPackets 	28
scalar MyScenario.node[248].nic.mac1609_4 	DroppedPacketsInMac 	0
scalar MyScenario.node[248].nic.mac1609_4 	TooLittleTime 	0
scalar MyScenario.node[248].nic.mac1609_4 	TimesIntoBackoff 	1
scalar MyScenario.node[248].nic.mac1609_4 	SlotsBackoff 	0
scalar MyScenario.node[248].nic.mac1609_4 	NumInternalContention 	0
scalar MyScenario.node[248].nic.mac1609_4 	totalBusyTime 	0.001393115168
scalar MyScenario.node[248].veinsmobility 	startTime 	4
scalar MyScenario.node[248].veinsmobility 	totalTime 	180
scalar MyScenario.node[248].veinsmobility 	stopTime 	185
scalar MyScenario.node[248].veinsmobility 	minSpeed 	2.8808209526322e-15
scalar MyScenario.node[248].veinsmobility 	maxSpeed 	13.888403629302
scalar MyScenario.node[248].veinsmobility 	totalDistance 	1464.9435048468
scalar MyScenario.node[248].veinsmobility 	totalCO2Emission 	496.80084087922
scalar MyScenario.node[294].appl 	generatedWSMs 	1
scalar MyScenario.node[294].appl 	receivedWSMs 	2
scalar MyScenario.node[294].appl 	generatedBSMs 	0
scalar MyScenario.node[294].appl 	receivedBSMs 	0
scalar MyScenario.node[294].appl 	generatedWSAs 	0
scalar MyScenario.node[294].appl 	receivedWSAs 	0
scalar MyScenario.node[294].nic.phy80211p 	busyTime 	1.8044444444444e-05
scalar MyScenario.node[294].nic.mac1609_4 	ReceivedUnicastPackets 	0
scalar MyScenario.node[294].nic.mac1609_4 	ReceivedBroadcasts 	2
scalar MyScenario.node[294].nic.mac1609_4 	SentPackets 	1
scalar MyScenario.node[294].nic.mac1609_4 	SNIRLostPackets 	12
scalar MyScenario.node[294].nic.mac1609_4 	RXTXLostPackets 	14
scalar MyScenario.node[294].nic.mac1609_4 	TotalLostPackets 	26
scalar MyScenario.node[294].nic.mac1609_4 	DroppedPacketsInMac 	0
scalar MyScenario.node[294].nic.mac1609_4 	TooLittleTime 	0
scalar MyScenario.node[294].nic.mac1609_4 	TimesIntoBackoff 	1
scalar MyScenario.node[294].nic.mac1609_4 	SlotsBackoff 	0
scalar MyScenario.node[294].nic.mac1609_4 	NumInternalContention 	0
scalar MyScenario.node[294].nic.mac1609_4 	totalBusyTime 	0.00116110142
scalar MyScenario.node[294].veinsmobility 	startTime 	7
scalar MyScenario.node[294].veinsmobility 	totalTime 	179
scalar MyScenario.node[294].veinsmobility 	stopTime 	187
scalar MyScenario.node[294].veinsmobility 	minSpeed 	4.184771951252e-13
scalar MyScenario.node[294].veinsmobility 	maxSpeed 	13.881991899968
scalar MyScenario.node[294].veinsmobility 	totalDistance 	1465.6647569247
scalar MyScenario.node[294].veinsmobility 	totalCO2Emission 	463.32289526578
