version 2
run General-1-20170829-17:38:42-8100
attr configname General
attr datetime 20170829-17:38:42
attr density 100
attr experiment General
attr inifile omnetpp.ini
attr iterationvars $density=100
attr iterationvars2 "$density=100, $repetition=1"
attr measurement $density=100
attr network com.liborio.pi.MyScenario
attr processid 8100
attr repetition 1
attr replication #1
attr resultdir results
attr runnumber 1
attr seedset 1
param **.coreDebug false
param **.debug false
param *.**.nic.mac1609_4.bitrate 6Mbps
param *.**.nic.mac1609_4.txPower 20mW
param *.**.nic.mac1609_4.useServiceChannel true
param *.**.nic.phy80211p.analogueModels "xmldoc(\"config.xml\")"
param *.**.nic.phy80211p.antenna "xmldoc(\"antenna.xml\", \"/root/Antenna[@id='monopole']\")"
param *.**.nic.phy80211p.decider "xmldoc(\"config.xml\")"
param *.**.nic.phy80211p.sensitivity -84.39dBm
param *.**.nic.phy80211p.thermalNoise -110dBm
param *.**.nic.phy80211p.usePropagationDelay true
param *.**.nic.phy80211p.useThermalNoise true
param *.annotations.draw true
param *.connectionManager.drawMaxIntfDist false
param *.connectionManager.maxInterfDist 2600m
param *.connectionManager.sendDirect true
param *.manager.autoShutdown true
param *.manager.host "\"localhost\""
param *.manager.launchConfig "xmldoc(string(${density = 100, 200, 300, 400})+\"_\"+ string(${repetition})+\".launchd.xml\")"
param *.manager.port 9999
param *.manager.updateInterval 1s
param *.node[*].appl.beaconInterval 1s
param *.node[*].appl.dataOnSch true
param *.node[*].appl.headerLength "80 bit"
param *.node[*].appl.isSource false
param *.node[*].appl.numMsgs 100
param *.node[*].appl.sendBeacons false
param *.node[*].appl.stopTrafficTime 130s
param *.node[*].appl.wsmInterval 3s
param *.node[*].applType "\"Flooding\""
param *.node[*].veinsmobility.x 0
param *.node[*].veinsmobility.y 0
param *.node[*].veinsmobility.z 1.895
param *.node[*].veinsmobilityType.debug true
param *.node[0].appl.isSource true
param *.playgroundSizeX 2500m
param *.playgroundSizeY 2500m
param *.playgroundSizeZ 50m

scalar . 	density 	100
scalar MyScenario.node[7].appl 	generatedWSMs 	1
scalar MyScenario.node[7].appl 	receivedWSMs 	3
scalar MyScenario.node[7].appl 	generatedBSMs 	0
scalar MyScenario.node[7].appl 	receivedBSMs 	0
scalar MyScenario.node[7].appl 	generatedWSAs 	0
scalar MyScenario.node[7].appl 	receivedWSAs 	0
scalar MyScenario.node[7].nic.phy80211p 	busyTime 	0.0001392
scalar MyScenario.node[7].nic.mac1609_4 	ReceivedUnicastPackets 	0
scalar MyScenario.node[7].nic.mac1609_4 	ReceivedBroadcasts 	3
scalar MyScenario.node[7].nic.mac1609_4 	SentPackets 	1
scalar MyScenario.node[7].nic.mac1609_4 	SNIRLostPackets 	3
scalar MyScenario.node[7].nic.mac1609_4 	RXTXLostPackets 	7
scalar MyScenario.node[7].nic.mac1609_4 	TotalLostPackets 	10
scalar MyScenario.node[7].nic.mac1609_4 	DroppedPacketsInMac 	0
scalar MyScenario.node[7].nic.mac1609_4 	TooLittleTime 	0
scalar MyScenario.node[7].nic.mac1609_4 	TimesIntoBackoff 	1
scalar MyScenario.node[7].nic.mac1609_4 	SlotsBackoff 	3
scalar MyScenario.node[7].nic.mac1609_4 	NumInternalContention 	0
scalar MyScenario.node[7].nic.mac1609_4 	totalBusyTime 	0.001161125155
scalar MyScenario.node[7].veinsmobility 	startTime 	1
scalar MyScenario.node[7].veinsmobility 	totalTime 	9
scalar MyScenario.node[7].veinsmobility 	stopTime 	11
scalar MyScenario.node[7].veinsmobility 	minSpeed 	2.0235112381168
scalar MyScenario.node[7].veinsmobility 	maxSpeed 	13.235516083636
scalar MyScenario.node[7].veinsmobility 	totalDistance 	79.598283323273
scalar MyScenario.node[7].veinsmobility 	totalCO2Emission 	36.471529642983
scalar MyScenario.node[50].appl 	generatedWSMs 	0
scalar MyScenario.node[50].appl 	receivedWSMs 	0
scalar MyScenario.node[50].appl 	generatedBSMs 	0
scalar MyScenario.node[50].appl 	receivedBSMs 	0
scalar MyScenario.node[50].appl 	generatedWSAs 	0
scalar MyScenario.node[50].appl 	receivedWSAs 	0
scalar MyScenario.node[50].nic.phy80211p 	busyTime 	0
scalar MyScenario.node[50].nic.mac1609_4 	ReceivedUnicastPackets 	0
scalar MyScenario.node[50].nic.mac1609_4 	ReceivedBroadcasts 	0
scalar MyScenario.node[50].nic.mac1609_4 	SentPackets 	0
scalar MyScenario.node[50].nic.mac1609_4 	SNIRLostPackets 	0
scalar MyScenario.node[50].nic.mac1609_4 	RXTXLostPackets 	0
scalar MyScenario.node[50].nic.mac1609_4 	TotalLostPackets 	0
scalar MyScenario.node[50].nic.mac1609_4 	DroppedPacketsInMac 	0
scalar MyScenario.node[50].nic.mac1609_4 	TooLittleTime 	0
scalar MyScenario.node[50].nic.mac1609_4 	TimesIntoBackoff 	0
scalar MyScenario.node[50].nic.mac1609_4 	SlotsBackoff 	0
scalar MyScenario.node[50].nic.mac1609_4 	NumInternalContention 	0
scalar MyScenario.node[50].nic.mac1609_4 	totalBusyTime 	0
scalar MyScenario.node[50].veinsmobility 	startTime 	1
scalar MyScenario.node[50].veinsmobility 	totalTime 	10
scalar MyScenario.node[50].veinsmobility 	stopTime 	12
scalar MyScenario.node[50].veinsmobility 	minSpeed 	2.5229838437866
scalar MyScenario.node[50].veinsmobility 	maxSpeed 	13.138747743494
scalar MyScenario.node[50].veinsmobility 	totalDistance 	93.609193521808
scalar MyScenario.node[50].veinsmobility 	totalCO2Emission 	38.386736092321
scalar MyScenario.node[48].appl 	generatedWSMs 	1
scalar MyScenario.node[48].appl 	receivedWSMs 	3
scalar MyScenario.node[48].appl 	generatedBSMs 	0
scalar MyScenario.node[48].appl 	receivedBSMs 	0
scalar MyScenario.node[48].appl 	generatedWSAs 	0
scalar MyScenario.node[48].appl 	receivedWSAs 	0
scalar MyScenario.node[48].nic.phy80211p 	busyTime 	0.00013647058823529
scalar MyScenario.node[48].nic.mac1609_4 	ReceivedUnicastPackets 	0
scalar MyScenario.node[48].nic.mac1609_4 	ReceivedBroadcasts 	3
scalar MyScenario.node[48].nic.mac1609_4 	SentPackets 	1
scalar MyScenario.node[48].nic.mac1609_4 	SNIRLostPackets 	7
scalar MyScenario.node[48].nic.mac1609_4 	RXTXLostPackets 	1
scalar MyScenario.node[48].nic.mac1609_4 	TotalLostPackets 	8
scalar MyScenario.node[48].nic.mac1609_4 	DroppedPacketsInMac 	0
scalar MyScenario.node[48].nic.mac1609_4 	TooLittleTime 	0
scalar MyScenario.node[48].nic.mac1609_4 	TimesIntoBackoff 	1
scalar MyScenario.node[48].nic.mac1609_4 	SlotsBackoff 	3
scalar MyScenario.node[48].nic.mac1609_4 	NumInternalContention 	0
scalar MyScenario.node[48].nic.mac1609_4 	totalBusyTime 	0.001625
scalar MyScenario.node[48].veinsmobility 	startTime 	1
scalar MyScenario.node[48].veinsmobility 	totalTime 	16
scalar MyScenario.node[48].veinsmobility 	stopTime 	18
scalar MyScenario.node[48].veinsmobility 	minSpeed 	2.4174969819607
scalar MyScenario.node[48].veinsmobility 	maxSpeed 	13.81960789666
scalar MyScenario.node[48].veinsmobility 	totalDistance 	175.71800149039
scalar MyScenario.node[48].veinsmobility 	totalCO2Emission 	54.051389705401
scalar MyScenario.node[5].appl 	generatedWSMs 	1
scalar MyScenario.node[5].appl 	receivedWSMs 	11
scalar MyScenario.node[5].appl 	generatedBSMs 	0
scalar MyScenario.node[5].appl 	receivedBSMs 	0
scalar MyScenario.node[5].appl 	generatedWSAs 	0
scalar MyScenario.node[5].appl 	receivedWSAs 	0
scalar MyScenario.node[5].nic.phy80211p 	busyTime 	0.000184
scalar MyScenario.node[5].nic.mac1609_4 	ReceivedUnicastPackets 	0
scalar MyScenario.node[5].nic.mac1609_4 	ReceivedBroadcasts 	11
scalar MyScenario.node[5].nic.mac1609_4 	SentPackets 	1
scalar MyScenario.node[5].nic.mac1609_4 	SNIRLostPackets 	12
scalar MyScenario.node[5].nic.mac1609_4 	RXTXLostPackets 	6
scalar MyScenario.node[5].nic.mac1609_4 	TotalLostPackets 	18
scalar MyScenario.node[5].nic.mac1609_4 	DroppedPacketsInMac 	0
scalar MyScenario.node[5].nic.mac1609_4 	TooLittleTime 	0
scalar MyScenario.node[5].nic.mac1609_4 	TimesIntoBackoff 	1
scalar MyScenario.node[5].nic.mac1609_4 	SlotsBackoff 	2
scalar MyScenario.node[5].nic.mac1609_4 	NumInternalContention 	0
scalar MyScenario.node[5].nic.mac1609_4 	totalBusyTime 	0.003713088076
scalar MyScenario.node[5].veinsmobility 	startTime 	1
scalar MyScenario.node[5].veinsmobility 	totalTime 	28
scalar MyScenario.node[5].veinsmobility 	stopTime 	30
scalar MyScenario.node[5].veinsmobility 	minSpeed 	2.5998513045954
scalar MyScenario.node[5].veinsmobility 	maxSpeed 	13.746349579934
scalar MyScenario.node[5].veinsmobility 	totalDistance 	277.04181355317
scalar MyScenario.node[5].veinsmobility 	totalCO2Emission 	107.99797273629
scalar MyScenario.node[38].appl 	generatedWSMs 	1
scalar MyScenario.node[38].appl 	receivedWSMs 	1
scalar MyScenario.node[38].appl 	generatedBSMs 	0
scalar MyScenario.node[38].appl 	receivedBSMs 	0
scalar MyScenario.node[38].appl 	generatedWSAs 	0
scalar MyScenario.node[38].appl 	receivedWSAs 	0
scalar MyScenario.node[38].nic.phy80211p 	busyTime 	7.7333333333333e-06
scalar MyScenario.node[38].nic.mac1609_4 	ReceivedUnicastPackets 	0
scalar MyScenario.node[38].nic.mac1609_4 	ReceivedBroadcasts 	1
scalar MyScenario.node[38].nic.mac1609_4 	SentPackets 	1
scalar MyScenario.node[38].nic.mac1609_4 	SNIRLostPackets 	0
scalar MyScenario.node[38].nic.mac1609_4 	RXTXLostPackets 	6
scalar MyScenario.node[38].nic.mac1609_4 	TotalLostPackets 	6
scalar MyScenario.node[38].nic.mac1609_4 	DroppedPacketsInMac 	0
scalar MyScenario.node[38].nic.mac1609_4 	TooLittleTime 	0
scalar MyScenario.node[38].nic.mac1609_4 	TimesIntoBackoff 	1
scalar MyScenario.node[38].nic.mac1609_4 	SlotsBackoff 	1
scalar MyScenario.node[38].nic.mac1609_4 	NumInternalContention 	0
scalar MyScenario.node[38].nic.mac1609_4 	totalBusyTime 	0.000465
scalar MyScenario.node[38].veinsmobility 	startTime 	1
scalar MyScenario.node[38].veinsmobility 	totalTime 	29
scalar MyScenario.node[38].veinsmobility 	stopTime 	31
scalar MyScenario.node[38].veinsmobility 	minSpeed 	0.12708206927104
scalar MyScenario.node[38].veinsmobility 	maxSpeed 	13.894665442826
scalar MyScenario.node[38].veinsmobility 	totalDistance 	273.11655319892
scalar MyScenario.node[38].veinsmobility 	totalCO2Emission 	97.299842122268
scalar MyScenario.node[84].appl 	generatedWSMs 	1
scalar MyScenario.node[84].appl 	receivedWSMs 	5
scalar MyScenario.node[84].appl 	generatedBSMs 	0
scalar MyScenario.node[84].appl 	receivedBSMs 	0
scalar MyScenario.node[84].appl 	generatedWSAs 	0
scalar MyScenario.node[84].appl 	receivedWSAs 	0
scalar MyScenario.node[84].nic.phy80211p 	busyTime 	9.8424242424242e-05
scalar MyScenario.node[84].nic.mac1609_4 	ReceivedUnicastPackets 	0
scalar MyScenario.node[84].nic.mac1609_4 	ReceivedBroadcasts 	5
scalar MyScenario.node[84].nic.mac1609_4 	SentPackets 	1
scalar MyScenario.node[84].nic.mac1609_4 	SNIRLostPackets 	9
scalar MyScenario.node[84].nic.mac1609_4 	RXTXLostPackets 	0
scalar MyScenario.node[84].nic.mac1609_4 	TotalLostPackets 	9
scalar MyScenario.node[84].nic.mac1609_4 	DroppedPacketsInMac 	0
scalar MyScenario.node[84].nic.mac1609_4 	TooLittleTime 	0
scalar MyScenario.node[84].nic.mac1609_4 	TimesIntoBackoff 	1
scalar MyScenario.node[84].nic.mac1609_4 	SlotsBackoff 	2
scalar MyScenario.node[84].nic.mac1609_4 	NumInternalContention 	0
scalar MyScenario.node[84].nic.mac1609_4 	totalBusyTime 	0.001857
scalar MyScenario.node[84].veinsmobility 	startTime 	1
scalar MyScenario.node[84].veinsmobility 	totalTime 	32
scalar MyScenario.node[84].veinsmobility 	stopTime 	34
scalar MyScenario.node[84].veinsmobility 	minSpeed 	2.3424680717289
scalar MyScenario.node[84].veinsmobility 	maxSpeed 	13.811640765262
scalar MyScenario.node[84].veinsmobility 	totalDistance 	385.2534141938
scalar MyScenario.node[84].veinsmobility 	totalCO2Emission 	90.341998856833
scalar MyScenario.node[34].appl 	generatedWSMs 	1
scalar MyScenario.node[34].appl 	receivedWSMs 	1
scalar MyScenario.node[34].appl 	generatedBSMs 	0
scalar MyScenario.node[34].appl 	receivedBSMs 	0
scalar MyScenario.node[34].appl 	generatedWSAs 	0
scalar MyScenario.node[34].appl 	receivedWSAs 	0
scalar MyScenario.node[34].nic.phy80211p 	busyTime 	0.00010235294117647
scalar MyScenario.node[34].nic.mac1609_4 	ReceivedUnicastPackets 	0
scalar MyScenario.node[34].nic.mac1609_4 	ReceivedBroadcasts 	1
scalar MyScenario.node[34].nic.mac1609_4 	SentPackets 	1
scalar MyScenario.node[34].nic.mac1609_4 	SNIRLostPackets 	14
scalar MyScenario.node[34].nic.mac1609_4 	RXTXLostPackets 	0
scalar MyScenario.node[34].nic.mac1609_4 	TotalLostPackets 	14
scalar MyScenario.node[34].nic.mac1609_4 	DroppedPacketsInMac 	0
scalar MyScenario.node[34].nic.mac1609_4 	TooLittleTime 	0
scalar MyScenario.node[34].nic.mac1609_4 	TimesIntoBackoff 	1
scalar MyScenario.node[34].nic.mac1609_4 	SlotsBackoff 	0
scalar MyScenario.node[34].nic.mac1609_4 	NumInternalContention 	0
scalar MyScenario.node[34].nic.mac1609_4 	totalBusyTime 	0.001161
scalar MyScenario.node[34].veinsmobility 	startTime 	1
scalar MyScenario.node[34].veinsmobility 	totalTime 	33
scalar MyScenario.node[34].veinsmobility 	stopTime 	35
scalar MyScenario.node[34].veinsmobility 	minSpeed 	2.2930843308568
scalar MyScenario.node[34].veinsmobility 	maxSpeed 	13.832866394636
scalar MyScenario.node[34].veinsmobility 	totalDistance 	361.07183814629
scalar MyScenario.node[34].veinsmobility 	totalCO2Emission 	103.85155291962
scalar MyScenario.node[21].appl 	generatedWSMs 	1
scalar MyScenario.node[21].appl 	receivedWSMs 	12
scalar MyScenario.node[21].appl 	generatedBSMs 	0
scalar MyScenario.node[21].appl 	receivedBSMs 	0
scalar MyScenario.node[21].appl 	generatedWSAs 	0
scalar MyScenario.node[21].appl 	receivedWSAs 	0
scalar MyScenario.node[21].nic.phy80211p 	busyTime 	0.00013257142857143
scalar MyScenario.node[21].nic.mac1609_4 	ReceivedUnicastPackets 	0
scalar MyScenario.node[21].nic.mac1609_4 	ReceivedBroadcasts 	12
scalar MyScenario.node[21].nic.mac1609_4 	SentPackets 	1
scalar MyScenario.node[21].nic.mac1609_4 	SNIRLostPackets 	8
scalar MyScenario.node[21].nic.mac1609_4 	RXTXLostPackets 	5
scalar MyScenario.node[21].nic.mac1609_4 	TotalLostPackets 	13
scalar MyScenario.node[21].nic.mac1609_4 	DroppedPacketsInMac 	0
scalar MyScenario.node[21].nic.mac1609_4 	TooLittleTime 	0
scalar MyScenario.node[21].nic.mac1609_4 	TimesIntoBackoff 	1
scalar MyScenario.node[21].nic.mac1609_4 	SlotsBackoff 	0
scalar MyScenario.node[21].nic.mac1609_4 	NumInternalContention 	0
scalar MyScenario.node[21].nic.mac1609_4 	totalBusyTime 	0.003713
scalar MyScenario.node[21].veinsmobility 	startTime 	1
scalar MyScenario.node[21].veinsmobility 	totalTime 	34
scalar MyScenario.node[21].veinsmobility 	stopTime 	36
scalar MyScenario.node[21].veinsmobility 	minSpeed 	2.433438217896
scalar MyScenario.node[21].veinsmobility 	maxSpeed 	13.851820643689
scalar MyScenario.node[21].veinsmobility 	totalDistance 	366.55629553697
scalar MyScenario.node[21].veinsmobility 	totalCO2Emission 	119.8063985429
scalar MyScenario.node[89].appl 	generatedWSMs 	1
scalar MyScenario.node[89].appl 	receivedWSMs 	13
scalar MyScenario.node[89].appl 	generatedBSMs 	0
scalar MyScenario.node[89].appl 	receivedBSMs 	0
scalar MyScenario.node[89].appl 	generatedWSAs 	0
scalar MyScenario.node[89].appl 	receivedWSAs 	0
scalar MyScenario.node[89].nic.phy80211p 	busyTime 	0.00013533333333333
scalar MyScenario.node[89].nic.mac1609_4 	ReceivedUnicastPackets 	0
scalar MyScenario.node[89].nic.mac1609_4 	ReceivedBroadcasts 	13
scalar MyScenario.node[89].nic.mac1609_4 	SentPackets 	1
scalar MyScenario.node[89].nic.mac1609_4 	SNIRLostPackets 	8
scalar MyScenario.node[89].nic.mac1609_4 	RXTXLostPackets 	6
scalar MyScenario.node[89].nic.mac1609_4 	TotalLostPackets 	14
scalar MyScenario.node[89].nic.mac1609_4 	DroppedPacketsInMac 	0
scalar MyScenario.node[89].nic.mac1609_4 	TooLittleTime 	0
scalar MyScenario.node[89].nic.mac1609_4 	TimesIntoBackoff 	1
scalar MyScenario.node[89].nic.mac1609_4 	SlotsBackoff 	2
scalar MyScenario.node[89].nic.mac1609_4 	NumInternalContention 	0
scalar MyScenario.node[89].nic.mac1609_4 	totalBusyTime 	0.003945037706
scalar MyScenario.node[89].veinsmobility 	startTime 	3
scalar MyScenario.node[89].veinsmobility 	totalTime 	35
scalar MyScenario.node[89].veinsmobility 	stopTime 	39
scalar MyScenario.node[89].veinsmobility 	minSpeed 	0.72452864988852
scalar MyScenario.node[89].veinsmobility 	maxSpeed 	13.895003038296
scalar MyScenario.node[89].veinsmobility 	totalDistance 	371.1124350106
scalar MyScenario.node[89].veinsmobility 	totalCO2Emission 	123.8521324961
scalar MyScenario.node[12].appl 	generatedWSMs 	1
scalar MyScenario.node[12].appl 	receivedWSMs 	6
scalar MyScenario.node[12].appl 	generatedBSMs 	0
scalar MyScenario.node[12].appl 	receivedBSMs 	0
scalar MyScenario.node[12].appl 	generatedWSAs 	0
scalar MyScenario.node[12].appl 	receivedWSAs 	0
scalar MyScenario.node[12].nic.phy80211p 	busyTime 	5.22e-05
scalar MyScenario.node[12].nic.mac1609_4 	ReceivedUnicastPackets 	0
scalar MyScenario.node[12].nic.mac1609_4 	ReceivedBroadcasts 	6
scalar MyScenario.node[12].nic.mac1609_4 	SentPackets 	1
scalar MyScenario.node[12].nic.mac1609_4 	SNIRLostPackets 	3
scalar MyScenario.node[12].nic.mac1609_4 	RXTXLostPackets 	6
scalar MyScenario.node[12].nic.mac1609_4 	TotalLostPackets 	9
scalar MyScenario.node[12].nic.mac1609_4 	DroppedPacketsInMac 	0
scalar MyScenario.node[12].nic.mac1609_4 	TooLittleTime 	0
scalar MyScenario.node[12].nic.mac1609_4 	TimesIntoBackoff 	1
scalar MyScenario.node[12].nic.mac1609_4 	SlotsBackoff 	0
scalar MyScenario.node[12].nic.mac1609_4 	NumInternalContention 	0
scalar MyScenario.node[12].nic.mac1609_4 	totalBusyTime 	0.001857
scalar MyScenario.node[12].veinsmobility 	startTime 	1
scalar MyScenario.node[12].veinsmobility 	totalTime 	39
scalar MyScenario.node[12].veinsmobility 	stopTime 	41
scalar MyScenario.node[12].veinsmobility 	minSpeed 	1.6999805979896
scalar MyScenario.node[12].veinsmobility 	maxSpeed 	13.886118311179
scalar MyScenario.node[12].veinsmobility 	totalDistance 	468.49356610488
scalar MyScenario.node[12].veinsmobility 	totalCO2Emission 	105.89675449856
scalar MyScenario.node[67].appl 	generatedWSMs 	1
scalar MyScenario.node[67].appl 	receivedWSMs 	2
scalar MyScenario.node[67].appl 	generatedBSMs 	0
scalar MyScenario.node[67].appl 	receivedBSMs 	0
scalar MyScenario.node[67].appl 	generatedWSAs 	0
scalar MyScenario.node[67].appl 	receivedWSAs 	0
scalar MyScenario.node[67].nic.phy80211p 	busyTime 	8.2857142857143e-05
scalar MyScenario.node[67].nic.mac1609_4 	ReceivedUnicastPackets 	0
scalar MyScenario.node[67].nic.mac1609_4 	ReceivedBroadcasts 	2
scalar MyScenario.node[67].nic.mac1609_4 	SentPackets 	1
scalar MyScenario.node[67].nic.mac1609_4 	SNIRLostPackets 	13
scalar MyScenario.node[67].nic.mac1609_4 	RXTXLostPackets 	3
scalar MyScenario.node[67].nic.mac1609_4 	TotalLostPackets 	16
scalar MyScenario.node[67].nic.mac1609_4 	DroppedPacketsInMac 	0
scalar MyScenario.node[67].nic.mac1609_4 	TooLittleTime 	0
scalar MyScenario.node[67].nic.mac1609_4 	TimesIntoBackoff 	1
scalar MyScenario.node[67].nic.mac1609_4 	SlotsBackoff 	0
scalar MyScenario.node[67].nic.mac1609_4 	NumInternalContention 	0
scalar MyScenario.node[67].nic.mac1609_4 	totalBusyTime 	0.001393
scalar MyScenario.node[67].veinsmobility 	startTime 	1
scalar MyScenario.node[67].veinsmobility 	totalTime 	41
scalar MyScenario.node[67].veinsmobility 	stopTime 	43
scalar MyScenario.node[67].veinsmobility 	minSpeed 	1.3036597494269
scalar MyScenario.node[67].veinsmobility 	maxSpeed 	13.799049386661
scalar MyScenario.node[67].veinsmobility 	totalDistance 	458.9656091981
scalar MyScenario.node[67].veinsmobility 	totalCO2Emission 	139.69845827023
scalar MyScenario.node[26].appl 	generatedWSMs 	1
scalar MyScenario.node[26].appl 	receivedWSMs 	9
scalar MyScenario.node[26].appl 	generatedBSMs 	0
scalar MyScenario.node[26].appl 	receivedBSMs 	0
scalar MyScenario.node[26].appl 	generatedWSAs 	0
scalar MyScenario.node[26].appl 	receivedWSAs 	0
scalar MyScenario.node[26].nic.phy80211p 	busyTime 	9.9428571428571e-05
scalar MyScenario.node[26].nic.mac1609_4 	ReceivedUnicastPackets 	0
scalar MyScenario.node[26].nic.mac1609_4 	ReceivedBroadcasts 	9
scalar MyScenario.node[26].nic.mac1609_4 	SentPackets 	1
scalar MyScenario.node[26].nic.mac1609_4 	SNIRLostPackets 	9
scalar MyScenario.node[26].nic.mac1609_4 	RXTXLostPackets 	5
scalar MyScenario.node[26].nic.mac1609_4 	TotalLostPackets 	14
scalar MyScenario.node[26].nic.mac1609_4 	DroppedPacketsInMac 	0
scalar MyScenario.node[26].nic.mac1609_4 	TooLittleTime 	0
scalar MyScenario.node[26].nic.mac1609_4 	TimesIntoBackoff 	1
scalar MyScenario.node[26].nic.mac1609_4 	SlotsBackoff 	0
scalar MyScenario.node[26].nic.mac1609_4 	NumInternalContention 	0
scalar MyScenario.node[26].nic.mac1609_4 	totalBusyTime 	0.003249
scalar MyScenario.node[26].veinsmobility 	startTime 	1
scalar MyScenario.node[26].veinsmobility 	totalTime 	41
scalar MyScenario.node[26].veinsmobility 	stopTime 	43
scalar MyScenario.node[26].veinsmobility 	minSpeed 	1.3791338665877
scalar MyScenario.node[26].veinsmobility 	maxSpeed 	13.862791025871
scalar MyScenario.node[26].veinsmobility 	totalDistance 	478.32456843947
scalar MyScenario.node[26].veinsmobility 	totalCO2Emission 	120.58693486743
scalar MyScenario.node[78].appl 	generatedWSMs 	1
scalar MyScenario.node[78].appl 	receivedWSMs 	7
scalar MyScenario.node[78].appl 	generatedBSMs 	0
scalar MyScenario.node[78].appl 	receivedBSMs 	0
scalar MyScenario.node[78].appl 	generatedWSAs 	0
scalar MyScenario.node[78].appl 	receivedWSAs 	0
scalar MyScenario.node[78].nic.phy80211p 	busyTime 	6.7022222222222e-05
scalar MyScenario.node[78].nic.mac1609_4 	ReceivedUnicastPackets 	0
scalar MyScenario.node[78].nic.mac1609_4 	ReceivedBroadcasts 	7
scalar MyScenario.node[78].nic.mac1609_4 	SentPackets 	1
scalar MyScenario.node[78].nic.mac1609_4 	SNIRLostPackets 	6
scalar MyScenario.node[78].nic.mac1609_4 	RXTXLostPackets 	5
scalar MyScenario.node[78].nic.mac1609_4 	TotalLostPackets 	11
scalar MyScenario.node[78].nic.mac1609_4 	DroppedPacketsInMac 	0
scalar MyScenario.node[78].nic.mac1609_4 	TooLittleTime 	0
scalar MyScenario.node[78].nic.mac1609_4 	TimesIntoBackoff 	1
scalar MyScenario.node[78].nic.mac1609_4 	SlotsBackoff 	2
scalar MyScenario.node[78].nic.mac1609_4 	NumInternalContention 	0
scalar MyScenario.node[78].nic.mac1609_4 	totalBusyTime 	0.002785
scalar MyScenario.node[78].veinsmobility 	startTime 	1
scalar MyScenario.node[78].veinsmobility 	totalTime 	44
scalar MyScenario.node[78].veinsmobility 	stopTime 	46
scalar MyScenario.node[78].veinsmobility 	minSpeed 	2.0646757573588
scalar MyScenario.node[78].veinsmobility 	maxSpeed 	13.85715096395
scalar MyScenario.node[78].veinsmobility 	totalDistance 	467.53616587588
scalar MyScenario.node[78].veinsmobility 	totalCO2Emission 	157.56601349707
scalar MyScenario.node[55].appl 	generatedWSMs 	1
scalar MyScenario.node[55].appl 	receivedWSMs 	7
scalar MyScenario.node[55].appl 	generatedBSMs 	0
scalar MyScenario.node[55].appl 	receivedBSMs 	0
scalar MyScenario.node[55].appl 	generatedWSAs 	0
scalar MyScenario.node[55].appl 	receivedWSAs 	0
scalar MyScenario.node[55].nic.phy80211p 	busyTime 	8.0695652173913e-05
scalar MyScenario.node[55].nic.mac1609_4 	ReceivedUnicastPackets 	0
scalar MyScenario.node[55].nic.mac1609_4 	ReceivedBroadcasts 	7
scalar MyScenario.node[55].nic.mac1609_4 	SentPackets 	1
scalar MyScenario.node[55].nic.mac1609_4 	SNIRLostPackets 	9
scalar MyScenario.node[55].nic.mac1609_4 	RXTXLostPackets 	3
scalar MyScenario.node[55].nic.mac1609_4 	TotalLostPackets 	12
scalar MyScenario.node[55].nic.mac1609_4 	DroppedPacketsInMac 	0
scalar MyScenario.node[55].nic.mac1609_4 	TooLittleTime 	0
scalar MyScenario.node[55].nic.mac1609_4 	TimesIntoBackoff 	1
scalar MyScenario.node[55].nic.mac1609_4 	SlotsBackoff 	2
scalar MyScenario.node[55].nic.mac1609_4 	NumInternalContention 	0
scalar MyScenario.node[55].nic.mac1609_4 	totalBusyTime 	0.002553
scalar MyScenario.node[55].veinsmobility 	startTime 	1
scalar MyScenario.node[55].veinsmobility 	totalTime 	45
scalar MyScenario.node[55].veinsmobility 	stopTime 	47
scalar MyScenario.node[55].veinsmobility 	minSpeed 	0.03136850711828
scalar MyScenario.node[55].veinsmobility 	maxSpeed 	13.863836386078
scalar MyScenario.node[55].veinsmobility 	totalDistance 	463.45421281235
scalar MyScenario.node[55].veinsmobility 	totalCO2Emission 	145.86146118856
scalar MyScenario.node[52].appl 	generatedWSMs 	0
scalar MyScenario.node[52].appl 	receivedWSMs 	0
scalar MyScenario.node[52].appl 	generatedBSMs 	0
scalar MyScenario.node[52].appl 	receivedBSMs 	0
scalar MyScenario.node[52].appl 	generatedWSAs 	0
scalar MyScenario.node[52].appl 	receivedWSAs 	0
scalar MyScenario.node[52].nic.phy80211p 	busyTime 	0
scalar MyScenario.node[52].nic.mac1609_4 	ReceivedUnicastPackets 	0
scalar MyScenario.node[52].nic.mac1609_4 	ReceivedBroadcasts 	0
scalar MyScenario.node[52].nic.mac1609_4 	SentPackets 	0
scalar MyScenario.node[52].nic.mac1609_4 	SNIRLostPackets 	0
scalar MyScenario.node[52].nic.mac1609_4 	RXTXLostPackets 	0
scalar MyScenario.node[52].nic.mac1609_4 	TotalLostPackets 	0
scalar MyScenario.node[52].nic.mac1609_4 	DroppedPacketsInMac 	0
scalar MyScenario.node[52].nic.mac1609_4 	TooLittleTime 	0
scalar MyScenario.node[52].nic.mac1609_4 	TimesIntoBackoff 	0
scalar MyScenario.node[52].nic.mac1609_4 	SlotsBackoff 	0
scalar MyScenario.node[52].nic.mac1609_4 	NumInternalContention 	0
scalar MyScenario.node[52].nic.mac1609_4 	totalBusyTime 	0
scalar MyScenario.node[52].veinsmobility 	startTime 	1
scalar MyScenario.node[52].veinsmobility 	totalTime 	46
scalar MyScenario.node[52].veinsmobility 	stopTime 	48
scalar MyScenario.node[52].veinsmobility 	minSpeed 	1.1315471996099
scalar MyScenario.node[52].veinsmobility 	maxSpeed 	13.843512995355
scalar MyScenario.node[52].veinsmobility 	totalDistance 	473.11587351444
scalar MyScenario.node[52].veinsmobility 	totalCO2Emission 	161.01418114679
scalar MyScenario.node[49].appl 	generatedWSMs 	1
scalar MyScenario.node[49].appl 	receivedWSMs 	1
scalar MyScenario.node[49].appl 	generatedBSMs 	0
scalar MyScenario.node[49].appl 	receivedBSMs 	0
scalar MyScenario.node[49].appl 	generatedWSAs 	0
scalar MyScenario.node[49].appl 	receivedWSAs 	0
scalar MyScenario.node[49].nic.phy80211p 	busyTime 	4.8333333333333e-05
scalar MyScenario.node[49].nic.mac1609_4 	ReceivedUnicastPackets 	0
scalar MyScenario.node[49].nic.mac1609_4 	ReceivedBroadcasts 	1
scalar MyScenario.node[49].nic.mac1609_4 	SentPackets 	1
scalar MyScenario.node[49].nic.mac1609_4 	SNIRLostPackets 	9
scalar MyScenario.node[49].nic.mac1609_4 	RXTXLostPackets 	7
scalar MyScenario.node[49].nic.mac1609_4 	TotalLostPackets 	16
scalar MyScenario.node[49].nic.mac1609_4 	DroppedPacketsInMac 	0
scalar MyScenario.node[49].nic.mac1609_4 	TooLittleTime 	0
scalar MyScenario.node[49].nic.mac1609_4 	TimesIntoBackoff 	1
scalar MyScenario.node[49].nic.mac1609_4 	SlotsBackoff 	2
scalar MyScenario.node[49].nic.mac1609_4 	NumInternalContention 	0
scalar MyScenario.node[49].nic.mac1609_4 	totalBusyTime 	0.001625
scalar MyScenario.node[49].veinsmobility 	startTime 	1
scalar MyScenario.node[49].veinsmobility 	totalTime 	47
scalar MyScenario.node[49].veinsmobility 	stopTime 	49
scalar MyScenario.node[49].veinsmobility 	minSpeed 	2.4894425308332
scalar MyScenario.node[49].veinsmobility 	maxSpeed 	13.895378819853
scalar MyScenario.node[49].veinsmobility 	totalDistance 	560.29599687373
scalar MyScenario.node[49].veinsmobility 	totalCO2Emission 	141.38092081836
scalar MyScenario.node[9].appl 	generatedWSMs 	0
scalar MyScenario.node[9].appl 	receivedWSMs 	0
scalar MyScenario.node[9].appl 	generatedBSMs 	0
scalar MyScenario.node[9].appl 	receivedBSMs 	0
scalar MyScenario.node[9].appl 	generatedWSAs 	0
scalar MyScenario.node[9].appl 	receivedWSAs 	0
scalar MyScenario.node[9].nic.phy80211p 	busyTime 	1.9333333333333e-05
scalar MyScenario.node[9].nic.mac1609_4 	ReceivedUnicastPackets 	0
scalar MyScenario.node[9].nic.mac1609_4 	ReceivedBroadcasts 	0
scalar MyScenario.node[9].nic.mac1609_4 	SentPackets 	0
scalar MyScenario.node[9].nic.mac1609_4 	SNIRLostPackets 	4
scalar MyScenario.node[9].nic.mac1609_4 	RXTXLostPackets 	0
scalar MyScenario.node[9].nic.mac1609_4 	TotalLostPackets 	4
scalar MyScenario.node[9].nic.mac1609_4 	DroppedPacketsInMac 	0
scalar MyScenario.node[9].nic.mac1609_4 	TooLittleTime 	0
scalar MyScenario.node[9].nic.mac1609_4 	TimesIntoBackoff 	0
scalar MyScenario.node[9].nic.mac1609_4 	SlotsBackoff 	0
scalar MyScenario.node[9].nic.mac1609_4 	NumInternalContention 	0
scalar MyScenario.node[9].nic.mac1609_4 	totalBusyTime 	0.000464
scalar MyScenario.node[9].veinsmobility 	startTime 	1
scalar MyScenario.node[9].veinsmobility 	totalTime 	47
scalar MyScenario.node[9].veinsmobility 	stopTime 	49
scalar MyScenario.node[9].veinsmobility 	minSpeed 	1.9052619206253
scalar MyScenario.node[9].veinsmobility 	maxSpeed 	13.809386280226
scalar MyScenario.node[9].veinsmobility 	totalDistance 	565.09283194011
scalar MyScenario.node[9].veinsmobility 	totalCO2Emission 	134.21741675004
scalar MyScenario.node[25].appl 	generatedWSMs 	1
scalar MyScenario.node[25].appl 	receivedWSMs 	2
scalar MyScenario.node[25].appl 	generatedBSMs 	0
scalar MyScenario.node[25].appl 	receivedBSMs 	0
scalar MyScenario.node[25].appl 	generatedWSAs 	0
scalar MyScenario.node[25].appl 	receivedWSAs 	0
scalar MyScenario.node[25].nic.phy80211p 	busyTime 	2.3673469387755e-05
scalar MyScenario.node[25].nic.mac1609_4 	ReceivedUnicastPackets 	0
scalar MyScenario.node[25].nic.mac1609_4 	ReceivedBroadcasts 	2
scalar MyScenario.node[25].nic.mac1609_4 	SentPackets 	1
scalar MyScenario.node[25].nic.mac1609_4 	SNIRLostPackets 	3
scalar MyScenario.node[25].nic.mac1609_4 	RXTXLostPackets 	6
scalar MyScenario.node[25].nic.mac1609_4 	TotalLostPackets 	9
scalar MyScenario.node[25].nic.mac1609_4 	DroppedPacketsInMac 	0
scalar MyScenario.node[25].nic.mac1609_4 	TooLittleTime 	0
scalar MyScenario.node[25].nic.mac1609_4 	TimesIntoBackoff 	1
scalar MyScenario.node[25].nic.mac1609_4 	SlotsBackoff 	2
scalar MyScenario.node[25].nic.mac1609_4 	NumInternalContention 	0
scalar MyScenario.node[25].nic.mac1609_4 	totalBusyTime 	0.000929
scalar MyScenario.node[25].veinsmobility 	startTime 	1
scalar MyScenario.node[25].veinsmobility 	totalTime 	48
scalar MyScenario.node[25].veinsmobility 	stopTime 	50
scalar MyScenario.node[25].veinsmobility 	minSpeed 	2.0525600930909
scalar MyScenario.node[25].veinsmobility 	maxSpeed 	13.8966730749
scalar MyScenario.node[25].veinsmobility 	totalDistance 	575.8507823712
scalar MyScenario.node[25].veinsmobility 	totalCO2Emission 	145.31218418006
scalar MyScenario.node[94].appl 	generatedWSMs 	1
scalar MyScenario.node[94].appl 	receivedWSMs 	1
scalar MyScenario.node[94].appl 	generatedBSMs 	0
scalar MyScenario.node[94].appl 	receivedBSMs 	0
scalar MyScenario.node[94].appl 	generatedWSAs 	0
scalar MyScenario.node[94].appl 	receivedWSAs 	0
scalar MyScenario.node[94].nic.phy80211p 	busyTime 	3.4553191489362e-05
scalar MyScenario.node[94].nic.mac1609_4 	ReceivedUnicastPackets 	0
scalar MyScenario.node[94].nic.mac1609_4 	ReceivedBroadcasts 	1
scalar MyScenario.node[94].nic.mac1609_4 	SentPackets 	1
scalar MyScenario.node[94].nic.mac1609_4 	SNIRLostPackets 	6
scalar MyScenario.node[94].nic.mac1609_4 	RXTXLostPackets 	3
scalar MyScenario.node[94].nic.mac1609_4 	TotalLostPackets 	9
scalar MyScenario.node[94].nic.mac1609_4 	DroppedPacketsInMac 	0
scalar MyScenario.node[94].nic.mac1609_4 	TooLittleTime 	0
scalar MyScenario.node[94].nic.mac1609_4 	TimesIntoBackoff 	1
scalar MyScenario.node[94].nic.mac1609_4 	SlotsBackoff 	2
scalar MyScenario.node[94].nic.mac1609_4 	NumInternalContention 	0
scalar MyScenario.node[94].nic.mac1609_4 	totalBusyTime 	0.001161
scalar MyScenario.node[94].veinsmobility 	startTime 	4
scalar MyScenario.node[94].veinsmobility 	totalTime 	46
scalar MyScenario.node[94].veinsmobility 	stopTime 	51
scalar MyScenario.node[94].veinsmobility 	minSpeed 	2.3343344385736
scalar MyScenario.node[94].veinsmobility 	maxSpeed 	13.878269729484
scalar MyScenario.node[94].veinsmobility 	totalDistance 	479.37551031063
scalar MyScenario.node[94].veinsmobility 	totalCO2Emission 	172.88021665742
scalar MyScenario.node[15].appl 	generatedWSMs 	0
scalar MyScenario.node[15].appl 	receivedWSMs 	0
scalar MyScenario.node[15].appl 	generatedBSMs 	0
scalar MyScenario.node[15].appl 	receivedBSMs 	0
scalar MyScenario.node[15].appl 	generatedWSAs 	0
scalar MyScenario.node[15].appl 	receivedWSAs 	0
scalar MyScenario.node[15].nic.phy80211p 	busyTime 	2.7294117647059e-05
scalar MyScenario.node[15].nic.mac1609_4 	ReceivedUnicastPackets 	0
scalar MyScenario.node[15].nic.mac1609_4 	ReceivedBroadcasts 	0
scalar MyScenario.node[15].nic.mac1609_4 	SentPackets 	0
scalar MyScenario.node[15].nic.mac1609_4 	SNIRLostPackets 	6
scalar MyScenario.node[15].nic.mac1609_4 	RXTXLostPackets 	0
scalar MyScenario.node[15].nic.mac1609_4 	TotalLostPackets 	6
scalar MyScenario.node[15].nic.mac1609_4 	DroppedPacketsInMac 	0
scalar MyScenario.node[15].nic.mac1609_4 	TooLittleTime 	0
scalar MyScenario.node[15].nic.mac1609_4 	TimesIntoBackoff 	0
scalar MyScenario.node[15].nic.mac1609_4 	SlotsBackoff 	0
scalar MyScenario.node[15].nic.mac1609_4 	NumInternalContention 	0
scalar MyScenario.node[15].nic.mac1609_4 	totalBusyTime 	0.000464
scalar MyScenario.node[15].veinsmobility 	startTime 	1
scalar MyScenario.node[15].veinsmobility 	totalTime 	50
scalar MyScenario.node[15].veinsmobility 	stopTime 	52
scalar MyScenario.node[15].veinsmobility 	minSpeed 	1.3547436084365
scalar MyScenario.node[15].veinsmobility 	maxSpeed 	13.886029658979
scalar MyScenario.node[15].veinsmobility 	totalDistance 	556.39079198505
scalar MyScenario.node[15].veinsmobility 	totalCO2Emission 	174.50778907863
scalar MyScenario.node[44].appl 	generatedWSMs 	1
scalar MyScenario.node[44].appl 	receivedWSMs 	10
scalar MyScenario.node[44].appl 	generatedBSMs 	0
scalar MyScenario.node[44].appl 	receivedBSMs 	0
scalar MyScenario.node[44].appl 	generatedWSAs 	0
scalar MyScenario.node[44].appl 	receivedWSAs 	0
scalar MyScenario.node[44].nic.phy80211p 	busyTime 	7.1384615384615e-05
scalar MyScenario.node[44].nic.mac1609_4 	ReceivedUnicastPackets 	0
scalar MyScenario.node[44].nic.mac1609_4 	ReceivedBroadcasts 	10
scalar MyScenario.node[44].nic.mac1609_4 	SentPackets 	1
scalar MyScenario.node[44].nic.mac1609_4 	SNIRLostPackets 	6
scalar MyScenario.node[44].nic.mac1609_4 	RXTXLostPackets 	4
scalar MyScenario.node[44].nic.mac1609_4 	TotalLostPackets 	10
scalar MyScenario.node[44].nic.mac1609_4 	DroppedPacketsInMac 	0
scalar MyScenario.node[44].nic.mac1609_4 	TooLittleTime 	0
scalar MyScenario.node[44].nic.mac1609_4 	TimesIntoBackoff 	1
scalar MyScenario.node[44].nic.mac1609_4 	SlotsBackoff 	1
scalar MyScenario.node[44].nic.mac1609_4 	NumInternalContention 	0
scalar MyScenario.node[44].nic.mac1609_4 	totalBusyTime 	0.003713
scalar MyScenario.node[44].veinsmobility 	startTime 	1
scalar MyScenario.node[44].veinsmobility 	totalTime 	51
scalar MyScenario.node[44].veinsmobility 	stopTime 	53
scalar MyScenario.node[44].veinsmobility 	minSpeed 	1.5215156259015
scalar MyScenario.node[44].veinsmobility 	maxSpeed 	13.777513319463
scalar MyScenario.node[44].veinsmobility 	totalDistance 	562.22229499571
scalar MyScenario.node[44].veinsmobility 	totalCO2Emission 	173.40188088349
scalar MyScenario.node[83].appl 	generatedWSMs 	0
scalar MyScenario.node[83].appl 	receivedWSMs 	0
scalar MyScenario.node[83].appl 	generatedBSMs 	0
scalar MyScenario.node[83].appl 	receivedBSMs 	0
scalar MyScenario.node[83].appl 	generatedWSAs 	0
scalar MyScenario.node[83].appl 	receivedWSAs 	0
scalar MyScenario.node[83].nic.phy80211p 	busyTime 	2.2307692307692e-05
scalar MyScenario.node[83].nic.mac1609_4 	ReceivedUnicastPackets 	0
scalar MyScenario.node[83].nic.mac1609_4 	ReceivedBroadcasts 	0
scalar MyScenario.node[83].nic.mac1609_4 	SentPackets 	0
scalar MyScenario.node[83].nic.mac1609_4 	SNIRLostPackets 	5
scalar MyScenario.node[83].nic.mac1609_4 	RXTXLostPackets 	0
scalar MyScenario.node[83].nic.mac1609_4 	TotalLostPackets 	5
scalar MyScenario.node[83].nic.mac1609_4 	DroppedPacketsInMac 	0
scalar MyScenario.node[83].nic.mac1609_4 	TooLittleTime 	0
scalar MyScenario.node[83].nic.mac1609_4 	TimesIntoBackoff 	0
scalar MyScenario.node[83].nic.mac1609_4 	SlotsBackoff 	0
scalar MyScenario.node[83].nic.mac1609_4 	NumInternalContention 	0
scalar MyScenario.node[83].nic.mac1609_4 	totalBusyTime 	0.000232
scalar MyScenario.node[83].veinsmobility 	startTime 	1
scalar MyScenario.node[83].veinsmobility 	totalTime 	51
scalar MyScenario.node[83].veinsmobility 	stopTime 	53
scalar MyScenario.node[83].veinsmobility 	minSpeed 	1.6248123938916
scalar MyScenario.node[83].veinsmobility 	maxSpeed 	13.860058843344
scalar MyScenario.node[83].veinsmobility 	totalDistance 	564.32060009562
scalar MyScenario.node[83].veinsmobility 	totalCO2Emission 	179.10779216724
scalar MyScenario.node[91].appl 	generatedWSMs 	0
scalar MyScenario.node[91].appl 	receivedWSMs 	0
scalar MyScenario.node[91].appl 	generatedBSMs 	0
scalar MyScenario.node[91].appl 	receivedBSMs 	0
scalar MyScenario.node[91].appl 	generatedWSAs 	0
scalar MyScenario.node[91].appl 	receivedWSAs 	0
scalar MyScenario.node[91].nic.phy80211p 	busyTime 	3.7877551020408e-05
scalar MyScenario.node[91].nic.mac1609_4 	ReceivedUnicastPackets 	0
scalar MyScenario.node[91].nic.mac1609_4 	ReceivedBroadcasts 	0
scalar MyScenario.node[91].nic.mac1609_4 	SentPackets 	0
scalar MyScenario.node[91].nic.mac1609_4 	SNIRLostPackets 	8
scalar MyScenario.node[91].nic.mac1609_4 	RXTXLostPackets 	0
scalar MyScenario.node[91].nic.mac1609_4 	TotalLostPackets 	8
scalar MyScenario.node[91].nic.mac1609_4 	DroppedPacketsInMac 	0
scalar MyScenario.node[91].nic.mac1609_4 	TooLittleTime 	0
scalar MyScenario.node[91].nic.mac1609_4 	TimesIntoBackoff 	0
scalar MyScenario.node[91].nic.mac1609_4 	SlotsBackoff 	0
scalar MyScenario.node[91].nic.mac1609_4 	NumInternalContention 	0
scalar MyScenario.node[91].nic.mac1609_4 	totalBusyTime 	0.000232
scalar MyScenario.node[91].veinsmobility 	startTime 	4
scalar MyScenario.node[91].veinsmobility 	totalTime 	48
scalar MyScenario.node[91].veinsmobility 	stopTime 	53
scalar MyScenario.node[91].veinsmobility 	minSpeed 	2.5137647174997
scalar MyScenario.node[91].veinsmobility 	maxSpeed 	13.866296461248
scalar MyScenario.node[91].veinsmobility 	totalDistance 	573.97157712473
scalar MyScenario.node[91].veinsmobility 	totalCO2Emission 	136.80849322908
scalar MyScenario.node[69].appl 	generatedWSMs 	1
scalar MyScenario.node[69].appl 	receivedWSMs 	8
scalar MyScenario.node[69].appl 	generatedBSMs 	0
scalar MyScenario.node[69].appl 	receivedBSMs 	0
scalar MyScenario.node[69].appl 	generatedWSAs 	0
scalar MyScenario.node[69].appl 	receivedWSAs 	0
scalar MyScenario.node[69].nic.phy80211p 	busyTime 	5.2528301886792e-05
scalar MyScenario.node[69].nic.mac1609_4 	ReceivedUnicastPackets 	0
scalar MyScenario.node[69].nic.mac1609_4 	ReceivedBroadcasts 	8
scalar MyScenario.node[69].nic.mac1609_4 	SentPackets 	1
scalar MyScenario.node[69].nic.mac1609_4 	SNIRLostPackets 	4
scalar MyScenario.node[69].nic.mac1609_4 	RXTXLostPackets 	9
scalar MyScenario.node[69].nic.mac1609_4 	TotalLostPackets 	13
scalar MyScenario.node[69].nic.mac1609_4 	DroppedPacketsInMac 	0
scalar MyScenario.node[69].nic.mac1609_4 	TooLittleTime 	0
scalar MyScenario.node[69].nic.mac1609_4 	TimesIntoBackoff 	1
scalar MyScenario.node[69].nic.mac1609_4 	SlotsBackoff 	3
scalar MyScenario.node[69].nic.mac1609_4 	NumInternalContention 	0
scalar MyScenario.node[69].nic.mac1609_4 	totalBusyTime 	0.002785
scalar MyScenario.node[69].veinsmobility 	startTime 	1
scalar MyScenario.node[69].veinsmobility 	totalTime 	52
scalar MyScenario.node[69].veinsmobility 	stopTime 	54
scalar MyScenario.node[69].veinsmobility 	minSpeed 	1.8290148281725
scalar MyScenario.node[69].veinsmobility 	maxSpeed 	13.851069371146
scalar MyScenario.node[69].veinsmobility 	totalDistance 	573.94157030849
scalar MyScenario.node[69].veinsmobility 	totalCO2Emission 	176.47491901024
scalar MyScenario.node[32].appl 	generatedWSMs 	0
scalar MyScenario.node[32].appl 	receivedWSMs 	0
scalar MyScenario.node[32].appl 	generatedBSMs 	0
scalar MyScenario.node[32].appl 	receivedBSMs 	0
scalar MyScenario.node[32].appl 	generatedWSAs 	0
scalar MyScenario.node[32].appl 	receivedWSAs 	0
scalar MyScenario.node[32].nic.phy80211p 	busyTime 	2.5777777777778e-05
scalar MyScenario.node[32].nic.mac1609_4 	ReceivedUnicastPackets 	0
scalar MyScenario.node[32].nic.mac1609_4 	ReceivedBroadcasts 	0
scalar MyScenario.node[32].nic.mac1609_4 	SentPackets 	0
scalar MyScenario.node[32].nic.mac1609_4 	SNIRLostPackets 	6
scalar MyScenario.node[32].nic.mac1609_4 	RXTXLostPackets 	0
scalar MyScenario.node[32].nic.mac1609_4 	TotalLostPackets 	6
scalar MyScenario.node[32].nic.mac1609_4 	DroppedPacketsInMac 	0
scalar MyScenario.node[32].nic.mac1609_4 	TooLittleTime 	0
scalar MyScenario.node[32].nic.mac1609_4 	TimesIntoBackoff 	0
scalar MyScenario.node[32].nic.mac1609_4 	SlotsBackoff 	0
scalar MyScenario.node[32].nic.mac1609_4 	NumInternalContention 	0
scalar MyScenario.node[32].nic.mac1609_4 	totalBusyTime 	0.000464
scalar MyScenario.node[32].veinsmobility 	startTime 	1
scalar MyScenario.node[32].veinsmobility 	totalTime 	53
scalar MyScenario.node[32].veinsmobility 	stopTime 	55
scalar MyScenario.node[32].veinsmobility 	minSpeed 	1.5880939938594
scalar MyScenario.node[32].veinsmobility 	maxSpeed 	13.89595328318
scalar MyScenario.node[32].veinsmobility 	totalDistance 	560.96911869834
scalar MyScenario.node[32].veinsmobility 	totalCO2Emission 	185.80693597462
scalar MyScenario.node[60].appl 	generatedWSMs 	1
scalar MyScenario.node[60].appl 	receivedWSMs 	1
scalar MyScenario.node[60].appl 	generatedBSMs 	0
scalar MyScenario.node[60].appl 	receivedBSMs 	0
scalar MyScenario.node[60].appl 	generatedWSAs 	0
scalar MyScenario.node[60].appl 	receivedWSAs 	0
scalar MyScenario.node[60].nic.phy80211p 	busyTime 	1.2888888888889e-05
scalar MyScenario.node[60].nic.mac1609_4 	ReceivedUnicastPackets 	0
scalar MyScenario.node[60].nic.mac1609_4 	ReceivedBroadcasts 	1
scalar MyScenario.node[60].nic.mac1609_4 	SentPackets 	1
scalar MyScenario.node[60].nic.mac1609_4 	SNIRLostPackets 	2
scalar MyScenario.node[60].nic.mac1609_4 	RXTXLostPackets 	2
scalar MyScenario.node[60].nic.mac1609_4 	TotalLostPackets 	4
scalar MyScenario.node[60].nic.mac1609_4 	DroppedPacketsInMac 	0
scalar MyScenario.node[60].nic.mac1609_4 	TooLittleTime 	0
scalar MyScenario.node[60].nic.mac1609_4 	TimesIntoBackoff 	1
scalar MyScenario.node[60].nic.mac1609_4 	SlotsBackoff 	3
scalar MyScenario.node[60].nic.mac1609_4 	NumInternalContention 	0
scalar MyScenario.node[60].nic.mac1609_4 	totalBusyTime 	0.000929
scalar MyScenario.node[60].veinsmobility 	startTime 	1
scalar MyScenario.node[60].veinsmobility 	totalTime 	53
scalar MyScenario.node[60].veinsmobility 	stopTime 	55
scalar MyScenario.node[60].veinsmobility 	minSpeed 	2.0842022907455
scalar MyScenario.node[60].veinsmobility 	maxSpeed 	13.893378435145
scalar MyScenario.node[60].veinsmobility 	totalDistance 	553.68756002015
scalar MyScenario.node[60].veinsmobility 	totalCO2Emission 	174.26809662769
scalar MyScenario.node[72].appl 	generatedWSMs 	1
scalar MyScenario.node[72].appl 	receivedWSMs 	10
scalar MyScenario.node[72].appl 	generatedBSMs 	0
scalar MyScenario.node[72].appl 	receivedBSMs 	0
scalar MyScenario.node[72].appl 	generatedWSAs 	0
scalar MyScenario.node[72].appl 	receivedWSAs 	0
scalar MyScenario.node[72].nic.phy80211p 	busyTime 	0.00020622222222222
scalar MyScenario.node[72].nic.mac1609_4 	ReceivedUnicastPackets 	0
scalar MyScenario.node[72].nic.mac1609_4 	ReceivedBroadcasts 	10
scalar MyScenario.node[72].nic.mac1609_4 	SentPackets 	1
scalar MyScenario.node[72].nic.mac1609_4 	SNIRLostPackets 	38
scalar MyScenario.node[72].nic.mac1609_4 	RXTXLostPackets 	3
scalar MyScenario.node[72].nic.mac1609_4 	TotalLostPackets 	41
scalar MyScenario.node[72].nic.mac1609_4 	DroppedPacketsInMac 	0
scalar MyScenario.node[72].nic.mac1609_4 	TooLittleTime 	0
scalar MyScenario.node[72].nic.mac1609_4 	TimesIntoBackoff 	1
scalar MyScenario.node[72].nic.mac1609_4 	SlotsBackoff 	2
scalar MyScenario.node[72].nic.mac1609_4 	NumInternalContention 	0
scalar MyScenario.node[72].nic.mac1609_4 	totalBusyTime 	0.004641
scalar MyScenario.node[72].veinsmobility 	startTime 	1
scalar MyScenario.node[72].veinsmobility 	totalTime 	53
scalar MyScenario.node[72].veinsmobility 	stopTime 	55
scalar MyScenario.node[72].veinsmobility 	minSpeed 	1.9180873884819
scalar MyScenario.node[72].veinsmobility 	maxSpeed 	13.88179537328
scalar MyScenario.node[72].veinsmobility 	totalDistance 	577.92028818441
scalar MyScenario.node[72].veinsmobility 	totalCO2Emission 	193.18281638663
scalar MyScenario.node[16].appl 	generatedWSMs 	1
scalar MyScenario.node[16].appl 	receivedWSMs 	2
scalar MyScenario.node[16].appl 	generatedBSMs 	0
scalar MyScenario.node[16].appl 	receivedBSMs 	0
scalar MyScenario.node[16].appl 	generatedWSAs 	0
scalar MyScenario.node[16].appl 	receivedWSAs 	0
scalar MyScenario.node[16].nic.phy80211p 	busyTime 	2.0714285714286e-05
scalar MyScenario.node[16].nic.mac1609_4 	ReceivedUnicastPackets 	0
scalar MyScenario.node[16].nic.mac1609_4 	ReceivedBroadcasts 	2
scalar MyScenario.node[16].nic.mac1609_4 	SentPackets 	1
scalar MyScenario.node[16].nic.mac1609_4 	SNIRLostPackets 	3
scalar MyScenario.node[16].nic.mac1609_4 	RXTXLostPackets 	6
scalar MyScenario.node[16].nic.mac1609_4 	TotalLostPackets 	9
scalar MyScenario.node[16].nic.mac1609_4 	DroppedPacketsInMac 	0
scalar MyScenario.node[16].nic.mac1609_4 	TooLittleTime 	0
scalar MyScenario.node[16].nic.mac1609_4 	TimesIntoBackoff 	1
scalar MyScenario.node[16].nic.mac1609_4 	SlotsBackoff 	3
scalar MyScenario.node[16].nic.mac1609_4 	NumInternalContention 	0
scalar MyScenario.node[16].nic.mac1609_4 	totalBusyTime 	0.001161
scalar MyScenario.node[16].veinsmobility 	startTime 	1
scalar MyScenario.node[16].veinsmobility 	totalTime 	55
scalar MyScenario.node[16].veinsmobility 	stopTime 	57
scalar MyScenario.node[16].veinsmobility 	minSpeed 	2.2119561119704
scalar MyScenario.node[16].veinsmobility 	maxSpeed 	13.853111185762
scalar MyScenario.node[16].veinsmobility 	totalDistance 	571.91422285678
scalar MyScenario.node[16].veinsmobility 	totalCO2Emission 	209.16365040822
scalar MyScenario.node[23].appl 	generatedWSMs 	1
scalar MyScenario.node[23].appl 	receivedWSMs 	2
scalar MyScenario.node[23].appl 	generatedBSMs 	0
scalar MyScenario.node[23].appl 	receivedBSMs 	0
scalar MyScenario.node[23].appl 	generatedWSAs 	0
scalar MyScenario.node[23].appl 	receivedWSAs 	0
scalar MyScenario.node[23].nic.phy80211p 	busyTime 	2.9e-05
scalar MyScenario.node[23].nic.mac1609_4 	ReceivedUnicastPackets 	0
scalar MyScenario.node[23].nic.mac1609_4 	ReceivedBroadcasts 	2
scalar MyScenario.node[23].nic.mac1609_4 	SentPackets 	1
scalar MyScenario.node[23].nic.mac1609_4 	SNIRLostPackets 	5
scalar MyScenario.node[23].nic.mac1609_4 	RXTXLostPackets 	6
scalar MyScenario.node[23].nic.mac1609_4 	TotalLostPackets 	11
scalar MyScenario.node[23].nic.mac1609_4 	DroppedPacketsInMac 	0
scalar MyScenario.node[23].nic.mac1609_4 	TooLittleTime 	0
scalar MyScenario.node[23].nic.mac1609_4 	TimesIntoBackoff 	1
scalar MyScenario.node[23].nic.mac1609_4 	SlotsBackoff 	1
scalar MyScenario.node[23].nic.mac1609_4 	NumInternalContention 	0
scalar MyScenario.node[23].nic.mac1609_4 	totalBusyTime 	0.001393000001
scalar MyScenario.node[23].veinsmobility 	startTime 	1
scalar MyScenario.node[23].veinsmobility 	totalTime 	55
scalar MyScenario.node[23].veinsmobility 	stopTime 	57
scalar MyScenario.node[23].veinsmobility 	minSpeed 	1.7283135464415
scalar MyScenario.node[23].veinsmobility 	maxSpeed 	13.895340471528
scalar MyScenario.node[23].veinsmobility 	totalDistance 	672.29826242661
scalar MyScenario.node[23].veinsmobility 	totalCO2Emission 	153.19259342307
scalar MyScenario.node[4].appl 	generatedWSMs 	1
scalar MyScenario.node[4].appl 	receivedWSMs 	7
scalar MyScenario.node[4].appl 	generatedBSMs 	0
scalar MyScenario.node[4].appl 	receivedBSMs 	0
scalar MyScenario.node[4].appl 	generatedWSAs 	0
scalar MyScenario.node[4].appl 	receivedWSAs 	0
scalar MyScenario.node[4].nic.phy80211p 	busyTime 	8e-05
scalar MyScenario.node[4].nic.mac1609_4 	ReceivedUnicastPackets 	0
scalar MyScenario.node[4].nic.mac1609_4 	ReceivedBroadcasts 	7
scalar MyScenario.node[4].nic.mac1609_4 	SentPackets 	1
scalar MyScenario.node[4].nic.mac1609_4 	SNIRLostPackets 	13
scalar MyScenario.node[4].nic.mac1609_4 	RXTXLostPackets 	6
scalar MyScenario.node[4].nic.mac1609_4 	TotalLostPackets 	19
scalar MyScenario.node[4].nic.mac1609_4 	DroppedPacketsInMac 	0
scalar MyScenario.node[4].nic.mac1609_4 	TooLittleTime 	0
scalar MyScenario.node[4].nic.mac1609_4 	TimesIntoBackoff 	1
scalar MyScenario.node[4].nic.mac1609_4 	SlotsBackoff 	1
scalar MyScenario.node[4].nic.mac1609_4 	NumInternalContention 	0
scalar MyScenario.node[4].nic.mac1609_4 	totalBusyTime 	0.003017
scalar MyScenario.node[4].veinsmobility 	startTime 	1
scalar MyScenario.node[4].veinsmobility 	totalTime 	57
scalar MyScenario.node[4].veinsmobility 	stopTime 	59
scalar MyScenario.node[4].veinsmobility 	minSpeed 	1.5192803147108
scalar MyScenario.node[4].veinsmobility 	maxSpeed 	13.8854546024
scalar MyScenario.node[4].veinsmobility 	totalDistance 	576.24446376714
scalar MyScenario.node[4].veinsmobility 	totalCO2Emission 	208.45731968038
scalar MyScenario.node[35].appl 	generatedWSMs 	1
scalar MyScenario.node[35].appl 	receivedWSMs 	9
scalar MyScenario.node[35].appl 	generatedBSMs 	0
scalar MyScenario.node[35].appl 	receivedBSMs 	0
scalar MyScenario.node[35].appl 	generatedWSAs 	0
scalar MyScenario.node[35].appl 	receivedWSAs 	0
scalar MyScenario.node[35].nic.phy80211p 	busyTime 	0.000112
scalar MyScenario.node[35].nic.mac1609_4 	ReceivedUnicastPackets 	0
scalar MyScenario.node[35].nic.mac1609_4 	ReceivedBroadcasts 	9
scalar MyScenario.node[35].nic.mac1609_4 	SentPackets 	1
scalar MyScenario.node[35].nic.mac1609_4 	SNIRLostPackets 	19
scalar MyScenario.node[35].nic.mac1609_4 	RXTXLostPackets 	0
scalar MyScenario.node[35].nic.mac1609_4 	TotalLostPackets 	19
scalar MyScenario.node[35].nic.mac1609_4 	DroppedPacketsInMac 	0
scalar MyScenario.node[35].nic.mac1609_4 	TooLittleTime 	0
scalar MyScenario.node[35].nic.mac1609_4 	TimesIntoBackoff 	1
scalar MyScenario.node[35].nic.mac1609_4 	SlotsBackoff 	3
scalar MyScenario.node[35].nic.mac1609_4 	NumInternalContention 	0
scalar MyScenario.node[35].nic.mac1609_4 	totalBusyTime 	0.003249
scalar MyScenario.node[35].veinsmobility 	startTime 	1
scalar MyScenario.node[35].veinsmobility 	totalTime 	57
scalar MyScenario.node[35].veinsmobility 	stopTime 	59
scalar MyScenario.node[35].veinsmobility 	minSpeed 	1.7005597534589
scalar MyScenario.node[35].veinsmobility 	maxSpeed 	13.885996668995
scalar MyScenario.node[35].veinsmobility 	totalDistance 	680.89852596878
scalar MyScenario.node[35].veinsmobility 	totalCO2Emission 	171.55408015136
scalar MyScenario.node[65].appl 	generatedWSMs 	1
scalar MyScenario.node[65].appl 	receivedWSMs 	7
scalar MyScenario.node[65].appl 	generatedBSMs 	0
scalar MyScenario.node[65].appl 	receivedBSMs 	0
scalar MyScenario.node[65].appl 	generatedWSAs 	0
scalar MyScenario.node[65].appl 	receivedWSAs 	0
scalar MyScenario.node[65].nic.phy80211p 	busyTime 	9.0440677966102e-05
scalar MyScenario.node[65].nic.mac1609_4 	ReceivedUnicastPackets 	0
scalar MyScenario.node[65].nic.mac1609_4 	ReceivedBroadcasts 	7
scalar MyScenario.node[65].nic.mac1609_4 	SentPackets 	1
scalar MyScenario.node[65].nic.mac1609_4 	SNIRLostPackets 	16
scalar MyScenario.node[65].nic.mac1609_4 	RXTXLostPackets 	0
scalar MyScenario.node[65].nic.mac1609_4 	TotalLostPackets 	16
scalar MyScenario.node[65].nic.mac1609_4 	DroppedPacketsInMac 	0
scalar MyScenario.node[65].nic.mac1609_4 	TooLittleTime 	0
scalar MyScenario.node[65].nic.mac1609_4 	TimesIntoBackoff 	1
scalar MyScenario.node[65].nic.mac1609_4 	SlotsBackoff 	3
scalar MyScenario.node[65].nic.mac1609_4 	NumInternalContention 	0
scalar MyScenario.node[65].nic.mac1609_4 	totalBusyTime 	0.003017
scalar MyScenario.node[65].veinsmobility 	startTime 	1
scalar MyScenario.node[65].veinsmobility 	totalTime 	58
scalar MyScenario.node[65].veinsmobility 	stopTime 	60
scalar MyScenario.node[65].veinsmobility 	minSpeed 	1.6692383358954
scalar MyScenario.node[65].veinsmobility 	maxSpeed 	13.864693520288
scalar MyScenario.node[65].veinsmobility 	totalDistance 	667.48463068339
scalar MyScenario.node[65].veinsmobility 	totalCO2Emission 	179.2399442644
scalar MyScenario.node[75].appl 	generatedWSMs 	1
scalar MyScenario.node[75].appl 	receivedWSMs 	1
scalar MyScenario.node[75].appl 	generatedBSMs 	0
scalar MyScenario.node[75].appl 	receivedBSMs 	0
scalar MyScenario.node[75].appl 	generatedWSAs 	0
scalar MyScenario.node[75].appl 	receivedWSAs 	0
scalar MyScenario.node[75].nic.phy80211p 	busyTime 	4.7186440677966e-05
scalar MyScenario.node[75].nic.mac1609_4 	ReceivedUnicastPackets 	0
scalar MyScenario.node[75].nic.mac1609_4 	ReceivedBroadcasts 	1
scalar MyScenario.node[75].nic.mac1609_4 	SentPackets 	1
scalar MyScenario.node[75].nic.mac1609_4 	SNIRLostPackets 	11
scalar MyScenario.node[75].nic.mac1609_4 	RXTXLostPackets 	0
scalar MyScenario.node[75].nic.mac1609_4 	TotalLostPackets 	11
scalar MyScenario.node[75].nic.mac1609_4 	DroppedPacketsInMac 	0
scalar MyScenario.node[75].nic.mac1609_4 	TooLittleTime 	0
scalar MyScenario.node[75].nic.mac1609_4 	TimesIntoBackoff 	1
scalar MyScenario.node[75].nic.mac1609_4 	SlotsBackoff 	0
scalar MyScenario.node[75].nic.mac1609_4 	NumInternalContention 	0
scalar MyScenario.node[75].nic.mac1609_4 	totalBusyTime 	0.00092900457
scalar MyScenario.node[75].veinsmobility 	startTime 	1
scalar MyScenario.node[75].veinsmobility 	totalTime 	58
scalar MyScenario.node[75].veinsmobility 	stopTime 	60
scalar MyScenario.node[75].veinsmobility 	minSpeed 	0.075803893122475
scalar MyScenario.node[75].veinsmobility 	maxSpeed 	13.89744725849
scalar MyScenario.node[75].veinsmobility 	totalDistance 	579.69625477426
scalar MyScenario.node[75].veinsmobility 	totalCO2Emission 	199.81972706648
scalar MyScenario.node[10].appl 	generatedWSMs 	1
scalar MyScenario.node[10].appl 	receivedWSMs 	12
scalar MyScenario.node[10].appl 	generatedBSMs 	0
scalar MyScenario.node[10].appl 	receivedBSMs 	0
scalar MyScenario.node[10].appl 	generatedWSAs 	0
scalar MyScenario.node[10].appl 	receivedWSAs 	0
scalar MyScenario.node[10].nic.phy80211p 	busyTime 	8.8933333333333e-05
scalar MyScenario.node[10].nic.mac1609_4 	ReceivedUnicastPackets 	0
scalar MyScenario.node[10].nic.mac1609_4 	ReceivedBroadcasts 	12
scalar MyScenario.node[10].nic.mac1609_4 	SentPackets 	1
scalar MyScenario.node[10].nic.mac1609_4 	SNIRLostPackets 	11
scalar MyScenario.node[10].nic.mac1609_4 	RXTXLostPackets 	5
scalar MyScenario.node[10].nic.mac1609_4 	TotalLostPackets 	16
scalar MyScenario.node[10].nic.mac1609_4 	DroppedPacketsInMac 	0
scalar MyScenario.node[10].nic.mac1609_4 	TooLittleTime 	0
scalar MyScenario.node[10].nic.mac1609_4 	TimesIntoBackoff 	1
scalar MyScenario.node[10].nic.mac1609_4 	SlotsBackoff 	1
scalar MyScenario.node[10].nic.mac1609_4 	NumInternalContention 	0
scalar MyScenario.node[10].nic.mac1609_4 	totalBusyTime 	0.003713
scalar MyScenario.node[10].veinsmobility 	startTime 	1
scalar MyScenario.node[10].veinsmobility 	totalTime 	59
scalar MyScenario.node[10].veinsmobility 	stopTime 	61
scalar MyScenario.node[10].veinsmobility 	minSpeed 	2.5762252358487
scalar MyScenario.node[10].veinsmobility 	maxSpeed 	13.875714689121
scalar MyScenario.node[10].veinsmobility 	totalDistance 	665.23843259545
scalar MyScenario.node[10].veinsmobility 	totalCO2Emission 	191.98240509023
scalar MyScenario.node[19].appl 	generatedWSMs 	1
scalar MyScenario.node[19].appl 	receivedWSMs 	2
scalar MyScenario.node[19].appl 	generatedBSMs 	0
scalar MyScenario.node[19].appl 	receivedBSMs 	0
scalar MyScenario.node[19].appl 	generatedWSAs 	0
scalar MyScenario.node[19].appl 	receivedWSAs 	0
scalar MyScenario.node[19].nic.phy80211p 	busyTime 	2.6622950819672e-05
scalar MyScenario.node[19].nic.mac1609_4 	ReceivedUnicastPackets 	0
scalar MyScenario.node[19].nic.mac1609_4 	ReceivedBroadcasts 	2
scalar MyScenario.node[19].nic.mac1609_4 	SentPackets 	1
scalar MyScenario.node[19].nic.mac1609_4 	SNIRLostPackets 	5
scalar MyScenario.node[19].nic.mac1609_4 	RXTXLostPackets 	8
scalar MyScenario.node[19].nic.mac1609_4 	TotalLostPackets 	13
scalar MyScenario.node[19].nic.mac1609_4 	DroppedPacketsInMac 	0
scalar MyScenario.node[19].nic.mac1609_4 	TooLittleTime 	0
scalar MyScenario.node[19].nic.mac1609_4 	TimesIntoBackoff 	1
scalar MyScenario.node[19].nic.mac1609_4 	SlotsBackoff 	3
scalar MyScenario.node[19].nic.mac1609_4 	NumInternalContention 	0
scalar MyScenario.node[19].nic.mac1609_4 	totalBusyTime 	0.001161
scalar MyScenario.node[19].veinsmobility 	startTime 	1
scalar MyScenario.node[19].veinsmobility 	totalTime 	60
scalar MyScenario.node[19].veinsmobility 	stopTime 	62
scalar MyScenario.node[19].veinsmobility 	minSpeed 	1.3144805862801
scalar MyScenario.node[19].veinsmobility 	maxSpeed 	13.815709042875
scalar MyScenario.node[19].veinsmobility 	totalDistance 	677.93274265533
scalar MyScenario.node[19].veinsmobility 	totalCO2Emission 	181.19572161585
scalar MyScenario.node[63].appl 	generatedWSMs 	1
scalar MyScenario.node[63].appl 	receivedWSMs 	3
scalar MyScenario.node[63].appl 	generatedBSMs 	0
scalar MyScenario.node[63].appl 	receivedBSMs 	0
scalar MyScenario.node[63].appl 	generatedWSAs 	0
scalar MyScenario.node[63].appl 	receivedWSAs 	0
scalar MyScenario.node[63].nic.phy80211p 	busyTime 	0.00010311111111111
scalar MyScenario.node[63].nic.mac1609_4 	ReceivedUnicastPackets 	0
scalar MyScenario.node[63].nic.mac1609_4 	ReceivedBroadcasts 	3
scalar MyScenario.node[63].nic.mac1609_4 	SentPackets 	1
scalar MyScenario.node[63].nic.mac1609_4 	SNIRLostPackets 	25
scalar MyScenario.node[63].nic.mac1609_4 	RXTXLostPackets 	2
scalar MyScenario.node[63].nic.mac1609_4 	TotalLostPackets 	27
scalar MyScenario.node[63].nic.mac1609_4 	DroppedPacketsInMac 	0
scalar MyScenario.node[63].nic.mac1609_4 	TooLittleTime 	0
scalar MyScenario.node[63].nic.mac1609_4 	TimesIntoBackoff 	1
scalar MyScenario.node[63].nic.mac1609_4 	SlotsBackoff 	0
scalar MyScenario.node[63].nic.mac1609_4 	NumInternalContention 	0
scalar MyScenario.node[63].nic.mac1609_4 	totalBusyTime 	0.002553036387
scalar MyScenario.node[63].veinsmobility 	startTime 	1
scalar MyScenario.node[63].veinsmobility 	totalTime 	62
scalar MyScenario.node[63].veinsmobility 	stopTime 	64
scalar MyScenario.node[63].veinsmobility 	minSpeed 	0.19086611598588
scalar MyScenario.node[63].veinsmobility 	maxSpeed 	13.862961894087
scalar MyScenario.node[63].veinsmobility 	totalDistance 	657.15940566104
scalar MyScenario.node[63].veinsmobility 	totalCO2Emission 	196.07341681644
scalar MyScenario.node[58].appl 	generatedWSMs 	1
scalar MyScenario.node[58].appl 	receivedWSMs 	9
scalar MyScenario.node[58].appl 	generatedBSMs 	0
scalar MyScenario.node[58].appl 	receivedBSMs 	0
scalar MyScenario.node[58].appl 	generatedWSAs 	0
scalar MyScenario.node[58].appl 	receivedWSAs 	0
scalar MyScenario.node[58].nic.phy80211p 	busyTime 	6.9968253968254e-05
scalar MyScenario.node[58].nic.mac1609_4 	ReceivedUnicastPackets 	0
scalar MyScenario.node[58].nic.mac1609_4 	ReceivedBroadcasts 	9
scalar MyScenario.node[58].nic.mac1609_4 	SentPackets 	1
scalar MyScenario.node[58].nic.mac1609_4 	SNIRLostPackets 	10
scalar MyScenario.node[58].nic.mac1609_4 	RXTXLostPackets 	4
scalar MyScenario.node[58].nic.mac1609_4 	TotalLostPackets 	14
scalar MyScenario.node[58].nic.mac1609_4 	DroppedPacketsInMac 	0
scalar MyScenario.node[58].nic.mac1609_4 	TooLittleTime 	0
scalar MyScenario.node[58].nic.mac1609_4 	TimesIntoBackoff 	1
scalar MyScenario.node[58].nic.mac1609_4 	SlotsBackoff 	2
scalar MyScenario.node[58].nic.mac1609_4 	NumInternalContention 	0
scalar MyScenario.node[58].nic.mac1609_4 	totalBusyTime 	0.003481
scalar MyScenario.node[58].veinsmobility 	startTime 	1
scalar MyScenario.node[58].veinsmobility 	totalTime 	62
scalar MyScenario.node[58].veinsmobility 	stopTime 	64
scalar MyScenario.node[58].veinsmobility 	minSpeed 	0.26329619100048
scalar MyScenario.node[58].veinsmobility 	maxSpeed 	13.895955400122
scalar MyScenario.node[58].veinsmobility 	totalDistance 	664.41979325974
scalar MyScenario.node[58].veinsmobility 	totalCO2Emission 	206.88773777307
scalar MyScenario.node[86].appl 	generatedWSMs 	1
scalar MyScenario.node[86].appl 	receivedWSMs 	12
scalar MyScenario.node[86].appl 	generatedBSMs 	0
scalar MyScenario.node[86].appl 	receivedBSMs 	0
scalar MyScenario.node[86].appl 	generatedWSAs 	0
scalar MyScenario.node[86].appl 	receivedWSAs 	0
scalar MyScenario.node[86].nic.phy80211p 	busyTime 	6.6285714285714e-05
scalar MyScenario.node[86].nic.mac1609_4 	ReceivedUnicastPackets 	0
scalar MyScenario.node[86].nic.mac1609_4 	ReceivedBroadcasts 	12
scalar MyScenario.node[86].nic.mac1609_4 	SentPackets 	1
scalar MyScenario.node[86].nic.mac1609_4 	SNIRLostPackets 	6
scalar MyScenario.node[86].nic.mac1609_4 	RXTXLostPackets 	1
scalar MyScenario.node[86].nic.mac1609_4 	TotalLostPackets 	7
scalar MyScenario.node[86].nic.mac1609_4 	DroppedPacketsInMac 	0
scalar MyScenario.node[86].nic.mac1609_4 	TooLittleTime 	0
scalar MyScenario.node[86].nic.mac1609_4 	TimesIntoBackoff 	1
scalar MyScenario.node[86].nic.mac1609_4 	SlotsBackoff 	2
scalar MyScenario.node[86].nic.mac1609_4 	NumInternalContention 	0
scalar MyScenario.node[86].nic.mac1609_4 	totalBusyTime 	0.003945
scalar MyScenario.node[86].veinsmobility 	startTime 	1
scalar MyScenario.node[86].veinsmobility 	totalTime 	62
scalar MyScenario.node[86].veinsmobility 	stopTime 	64
scalar MyScenario.node[86].veinsmobility 	minSpeed 	0.34768730185147
scalar MyScenario.node[86].veinsmobility 	maxSpeed 	13.697209754819
scalar MyScenario.node[86].veinsmobility 	totalDistance 	671.60372706482
scalar MyScenario.node[86].veinsmobility 	totalCO2Emission 	183.70469148497
scalar MyScenario.node[13].appl 	generatedWSMs 	1
scalar MyScenario.node[13].appl 	receivedWSMs 	4
scalar MyScenario.node[13].appl 	generatedBSMs 	0
scalar MyScenario.node[13].appl 	receivedBSMs 	0
scalar MyScenario.node[13].appl 	generatedWSAs 	0
scalar MyScenario.node[13].appl 	receivedWSAs 	0
scalar MyScenario.node[13].nic.phy80211p 	busyTime 	1.8412698412698e-05
scalar MyScenario.node[13].nic.mac1609_4 	ReceivedUnicastPackets 	0
scalar MyScenario.node[13].nic.mac1609_4 	ReceivedBroadcasts 	4
scalar MyScenario.node[13].nic.mac1609_4 	SentPackets 	1
scalar MyScenario.node[13].nic.mac1609_4 	SNIRLostPackets 	1
scalar MyScenario.node[13].nic.mac1609_4 	RXTXLostPackets 	0
scalar MyScenario.node[13].nic.mac1609_4 	TotalLostPackets 	1
scalar MyScenario.node[13].nic.mac1609_4 	DroppedPacketsInMac 	0
scalar MyScenario.node[13].nic.mac1609_4 	TooLittleTime 	0
scalar MyScenario.node[13].nic.mac1609_4 	TimesIntoBackoff 	1
scalar MyScenario.node[13].nic.mac1609_4 	SlotsBackoff 	3
scalar MyScenario.node[13].nic.mac1609_4 	NumInternalContention 	0
scalar MyScenario.node[13].nic.mac1609_4 	totalBusyTime 	0.001393
scalar MyScenario.node[13].veinsmobility 	startTime 	1
scalar MyScenario.node[13].veinsmobility 	totalTime 	62
scalar MyScenario.node[13].veinsmobility 	stopTime 	64
scalar MyScenario.node[13].veinsmobility 	minSpeed 	2.46580618429
scalar MyScenario.node[13].veinsmobility 	maxSpeed 	13.859444432938
scalar MyScenario.node[13].veinsmobility 	totalDistance 	778.28150650541
scalar MyScenario.node[13].veinsmobility 	totalCO2Emission 	162.94928156391
scalar MyScenario.node[66].appl 	generatedWSMs 	0
scalar MyScenario.node[66].appl 	receivedWSMs 	0
scalar MyScenario.node[66].appl 	generatedBSMs 	0
scalar MyScenario.node[66].appl 	receivedBSMs 	0
scalar MyScenario.node[66].appl 	generatedWSAs 	0
scalar MyScenario.node[66].appl 	receivedWSAs 	0
scalar MyScenario.node[66].nic.phy80211p 	busyTime 	3.9875e-05
scalar MyScenario.node[66].nic.mac1609_4 	ReceivedUnicastPackets 	0
scalar MyScenario.node[66].nic.mac1609_4 	ReceivedBroadcasts 	0
scalar MyScenario.node[66].nic.mac1609_4 	SentPackets 	0
scalar MyScenario.node[66].nic.mac1609_4 	SNIRLostPackets 	11
scalar MyScenario.node[66].nic.mac1609_4 	RXTXLostPackets 	0
scalar MyScenario.node[66].nic.mac1609_4 	TotalLostPackets 	11
scalar MyScenario.node[66].nic.mac1609_4 	DroppedPacketsInMac 	0
scalar MyScenario.node[66].nic.mac1609_4 	TooLittleTime 	0
scalar MyScenario.node[66].nic.mac1609_4 	TimesIntoBackoff 	0
scalar MyScenario.node[66].nic.mac1609_4 	SlotsBackoff 	0
scalar MyScenario.node[66].nic.mac1609_4 	NumInternalContention 	0
scalar MyScenario.node[66].nic.mac1609_4 	totalBusyTime 	0.000696
scalar MyScenario.node[66].veinsmobility 	startTime 	1
scalar MyScenario.node[66].veinsmobility 	totalTime 	63
scalar MyScenario.node[66].veinsmobility 	stopTime 	65
scalar MyScenario.node[66].veinsmobility 	minSpeed 	0.98192753282158
scalar MyScenario.node[66].veinsmobility 	maxSpeed 	13.890839253692
scalar MyScenario.node[66].veinsmobility 	totalDistance 	656.5410650118
scalar MyScenario.node[66].veinsmobility 	totalCO2Emission 	213.93468030193
scalar MyScenario.node[79].appl 	generatedWSMs 	1
scalar MyScenario.node[79].appl 	receivedWSMs 	10
scalar MyScenario.node[79].appl 	generatedBSMs 	0
scalar MyScenario.node[79].appl 	receivedBSMs 	0
scalar MyScenario.node[79].appl 	generatedWSAs 	0
scalar MyScenario.node[79].appl 	receivedWSAs 	0
scalar MyScenario.node[79].nic.phy80211p 	busyTime 	5.3538461538462e-05
scalar MyScenario.node[79].nic.mac1609_4 	ReceivedUnicastPackets 	0
scalar MyScenario.node[79].nic.mac1609_4 	ReceivedBroadcasts 	10
scalar MyScenario.node[79].nic.mac1609_4 	SentPackets 	1
scalar MyScenario.node[79].nic.mac1609_4 	SNIRLostPackets 	5
scalar MyScenario.node[79].nic.mac1609_4 	RXTXLostPackets 	5
scalar MyScenario.node[79].nic.mac1609_4 	TotalLostPackets 	10
scalar MyScenario.node[79].nic.mac1609_4 	DroppedPacketsInMac 	0
scalar MyScenario.node[79].nic.mac1609_4 	TooLittleTime 	0
scalar MyScenario.node[79].nic.mac1609_4 	TimesIntoBackoff 	1
scalar MyScenario.node[79].nic.mac1609_4 	SlotsBackoff 	3
scalar MyScenario.node[79].nic.mac1609_4 	NumInternalContention 	0
scalar MyScenario.node[79].nic.mac1609_4 	totalBusyTime 	0.003249144379
scalar MyScenario.node[79].veinsmobility 	startTime 	1
scalar MyScenario.node[79].veinsmobility 	totalTime 	64
scalar MyScenario.node[79].veinsmobility 	stopTime 	66
scalar MyScenario.node[79].veinsmobility 	minSpeed 	1.4584473318886
scalar MyScenario.node[79].veinsmobility 	maxSpeed 	13.892091888445
scalar MyScenario.node[79].veinsmobility 	totalDistance 	755.2601052725
scalar MyScenario.node[79].veinsmobility 	totalCO2Emission 	193.71512293859
scalar MyScenario.node[6].appl 	generatedWSMs 	1
scalar MyScenario.node[6].appl 	receivedWSMs 	10
scalar MyScenario.node[6].appl 	generatedBSMs 	0
scalar MyScenario.node[6].appl 	receivedBSMs 	0
scalar MyScenario.node[6].appl 	generatedWSAs 	0
scalar MyScenario.node[6].appl 	receivedWSAs 	0
scalar MyScenario.node[6].nic.phy80211p 	busyTime 	9.6369230769231e-05
scalar MyScenario.node[6].nic.mac1609_4 	ReceivedUnicastPackets 	0
scalar MyScenario.node[6].nic.mac1609_4 	ReceivedBroadcasts 	10
scalar MyScenario.node[6].nic.mac1609_4 	SentPackets 	1
scalar MyScenario.node[6].nic.mac1609_4 	SNIRLostPackets 	17
scalar MyScenario.node[6].nic.mac1609_4 	RXTXLostPackets 	2
scalar MyScenario.node[6].nic.mac1609_4 	TotalLostPackets 	19
scalar MyScenario.node[6].nic.mac1609_4 	DroppedPacketsInMac 	0
scalar MyScenario.node[6].nic.mac1609_4 	TooLittleTime 	0
scalar MyScenario.node[6].nic.mac1609_4 	TimesIntoBackoff 	1
scalar MyScenario.node[6].nic.mac1609_4 	SlotsBackoff 	1
scalar MyScenario.node[6].nic.mac1609_4 	NumInternalContention 	0
scalar MyScenario.node[6].nic.mac1609_4 	totalBusyTime 	0.004177
scalar MyScenario.node[6].veinsmobility 	startTime 	1
scalar MyScenario.node[6].veinsmobility 	totalTime 	64
scalar MyScenario.node[6].veinsmobility 	stopTime 	66
scalar MyScenario.node[6].veinsmobility 	minSpeed 	1.5564152457984
scalar MyScenario.node[6].veinsmobility 	maxSpeed 	13.879975420865
scalar MyScenario.node[6].veinsmobility 	totalDistance 	764.58536186046
scalar MyScenario.node[6].veinsmobility 	totalCO2Emission 	196.72604706165
scalar MyScenario.node[98].appl 	generatedWSMs 	1
scalar MyScenario.node[98].appl 	receivedWSMs 	1
scalar MyScenario.node[98].appl 	generatedBSMs 	0
scalar MyScenario.node[98].appl 	receivedBSMs 	0
scalar MyScenario.node[98].appl 	generatedWSAs 	0
scalar MyScenario.node[98].appl 	receivedWSAs 	0
scalar MyScenario.node[98].nic.phy80211p 	busyTime 	2.6193548387097e-05
scalar MyScenario.node[98].nic.mac1609_4 	ReceivedUnicastPackets 	0
scalar MyScenario.node[98].nic.mac1609_4 	ReceivedBroadcasts 	1
scalar MyScenario.node[98].nic.mac1609_4 	SentPackets 	1
scalar MyScenario.node[98].nic.mac1609_4 	SNIRLostPackets 	6
scalar MyScenario.node[98].nic.mac1609_4 	RXTXLostPackets 	2
scalar MyScenario.node[98].nic.mac1609_4 	TotalLostPackets 	8
scalar MyScenario.node[98].nic.mac1609_4 	DroppedPacketsInMac 	0
scalar MyScenario.node[98].nic.mac1609_4 	TooLittleTime 	0
scalar MyScenario.node[98].nic.mac1609_4 	TimesIntoBackoff 	1
scalar MyScenario.node[98].nic.mac1609_4 	SlotsBackoff 	0
scalar MyScenario.node[98].nic.mac1609_4 	NumInternalContention 	0
scalar MyScenario.node[98].nic.mac1609_4 	totalBusyTime 	0.000697012509
scalar MyScenario.node[98].veinsmobility 	startTime 	4
scalar MyScenario.node[98].veinsmobility 	totalTime 	61
scalar MyScenario.node[98].veinsmobility 	stopTime 	66
scalar MyScenario.node[98].veinsmobility 	minSpeed 	1.6128465609858
scalar MyScenario.node[98].veinsmobility 	maxSpeed 	13.888388745324
scalar MyScenario.node[98].veinsmobility 	totalDistance 	673.59868687044
scalar MyScenario.node[98].veinsmobility 	totalCO2Emission 	207.45646343802
scalar MyScenario.node[42].appl 	generatedWSMs 	1
scalar MyScenario.node[42].appl 	receivedWSMs 	2
scalar MyScenario.node[42].appl 	generatedBSMs 	0
scalar MyScenario.node[42].appl 	receivedBSMs 	0
scalar MyScenario.node[42].appl 	generatedWSAs 	0
scalar MyScenario.node[42].appl 	receivedWSAs 	0
scalar MyScenario.node[42].nic.phy80211p 	busyTime 	2.4984615384615e-05
scalar MyScenario.node[42].nic.mac1609_4 	ReceivedUnicastPackets 	0
scalar MyScenario.node[42].nic.mac1609_4 	ReceivedBroadcasts 	2
scalar MyScenario.node[42].nic.mac1609_4 	SentPackets 	1
scalar MyScenario.node[42].nic.mac1609_4 	SNIRLostPackets 	5
scalar MyScenario.node[42].nic.mac1609_4 	RXTXLostPackets 	6
scalar MyScenario.node[42].nic.mac1609_4 	TotalLostPackets 	11
scalar MyScenario.node[42].nic.mac1609_4 	DroppedPacketsInMac 	0
scalar MyScenario.node[42].nic.mac1609_4 	TooLittleTime 	0
scalar MyScenario.node[42].nic.mac1609_4 	TimesIntoBackoff 	1
scalar MyScenario.node[42].nic.mac1609_4 	SlotsBackoff 	1
scalar MyScenario.node[42].nic.mac1609_4 	NumInternalContention 	0
scalar MyScenario.node[42].nic.mac1609_4 	totalBusyTime 	0.000929022025
scalar MyScenario.node[42].veinsmobility 	startTime 	1
scalar MyScenario.node[42].veinsmobility 	totalTime 	64
scalar MyScenario.node[42].veinsmobility 	stopTime 	66
scalar MyScenario.node[42].veinsmobility 	minSpeed 	1.7411735579371
scalar MyScenario.node[42].veinsmobility 	maxSpeed 	13.88168001927
scalar MyScenario.node[42].veinsmobility 	totalDistance 	780.18103009268
scalar MyScenario.node[42].veinsmobility 	totalCO2Emission 	176.42300863437
scalar MyScenario.node[36].appl 	generatedWSMs 	1
scalar MyScenario.node[36].appl 	receivedWSMs 	10
scalar MyScenario.node[36].appl 	generatedBSMs 	0
scalar MyScenario.node[36].appl 	receivedBSMs 	0
scalar MyScenario.node[36].appl 	generatedWSAs 	0
scalar MyScenario.node[36].appl 	receivedWSAs 	0
scalar MyScenario.node[36].nic.phy80211p 	busyTime 	4.9212121212121e-05
scalar MyScenario.node[36].nic.mac1609_4 	ReceivedUnicastPackets 	0
scalar MyScenario.node[36].nic.mac1609_4 	ReceivedBroadcasts 	10
scalar MyScenario.node[36].nic.mac1609_4 	SentPackets 	1
scalar MyScenario.node[36].nic.mac1609_4 	SNIRLostPackets 	4
scalar MyScenario.node[36].nic.mac1609_4 	RXTXLostPackets 	4
scalar MyScenario.node[36].nic.mac1609_4 	TotalLostPackets 	8
scalar MyScenario.node[36].nic.mac1609_4 	DroppedPacketsInMac 	0
scalar MyScenario.node[36].nic.mac1609_4 	TooLittleTime 	0
scalar MyScenario.node[36].nic.mac1609_4 	TimesIntoBackoff 	1
scalar MyScenario.node[36].nic.mac1609_4 	SlotsBackoff 	3
scalar MyScenario.node[36].nic.mac1609_4 	NumInternalContention 	0
scalar MyScenario.node[36].nic.mac1609_4 	totalBusyTime 	0.003249
scalar MyScenario.node[36].veinsmobility 	startTime 	1
scalar MyScenario.node[36].veinsmobility 	totalTime 	65
scalar MyScenario.node[36].veinsmobility 	stopTime 	67
scalar MyScenario.node[36].veinsmobility 	minSpeed 	2.5555772969732
scalar MyScenario.node[36].veinsmobility 	maxSpeed 	13.887000354426
scalar MyScenario.node[36].veinsmobility 	totalDistance 	676.78315068045
scalar MyScenario.node[36].veinsmobility 	totalCO2Emission 	246.25266497549
scalar MyScenario.node[14].appl 	generatedWSMs 	1
scalar MyScenario.node[14].appl 	receivedWSMs 	6
scalar MyScenario.node[14].appl 	generatedBSMs 	0
scalar MyScenario.node[14].appl 	receivedBSMs 	0
scalar MyScenario.node[14].appl 	generatedWSAs 	0
scalar MyScenario.node[14].appl 	receivedWSAs 	0
scalar MyScenario.node[14].nic.phy80211p 	busyTime 	5.0434782608696e-05
scalar MyScenario.node[14].nic.mac1609_4 	ReceivedUnicastPackets 	0
scalar MyScenario.node[14].nic.mac1609_4 	ReceivedBroadcasts 	6
scalar MyScenario.node[14].nic.mac1609_4 	SentPackets 	1
scalar MyScenario.node[14].nic.mac1609_4 	SNIRLostPackets 	9
scalar MyScenario.node[14].nic.mac1609_4 	RXTXLostPackets 	6
scalar MyScenario.node[14].nic.mac1609_4 	TotalLostPackets 	15
scalar MyScenario.node[14].nic.mac1609_4 	DroppedPacketsInMac 	0
scalar MyScenario.node[14].nic.mac1609_4 	TooLittleTime 	0
scalar MyScenario.node[14].nic.mac1609_4 	TimesIntoBackoff 	1
scalar MyScenario.node[14].nic.mac1609_4 	SlotsBackoff 	2
scalar MyScenario.node[14].nic.mac1609_4 	NumInternalContention 	0
scalar MyScenario.node[14].nic.mac1609_4 	totalBusyTime 	0.002321
scalar MyScenario.node[14].veinsmobility 	startTime 	1
scalar MyScenario.node[14].veinsmobility 	totalTime 	68
scalar MyScenario.node[14].veinsmobility 	stopTime 	70
scalar MyScenario.node[14].veinsmobility 	minSpeed 	0.30145960274136
scalar MyScenario.node[14].veinsmobility 	maxSpeed 	13.896689504059
scalar MyScenario.node[14].veinsmobility 	totalDistance 	682.40543035218
scalar MyScenario.node[14].veinsmobility 	totalCO2Emission 	227.84576426822
scalar MyScenario.node[61].appl 	generatedWSMs 	1
scalar MyScenario.node[61].appl 	receivedWSMs 	7
scalar MyScenario.node[61].appl 	generatedBSMs 	0
scalar MyScenario.node[61].appl 	receivedBSMs 	0
scalar MyScenario.node[61].appl 	generatedWSAs 	0
scalar MyScenario.node[61].appl 	receivedWSAs 	0
scalar MyScenario.node[61].nic.phy80211p 	busyTime 	3.6457142857143e-05
scalar MyScenario.node[61].nic.mac1609_4 	ReceivedUnicastPackets 	0
scalar MyScenario.node[61].nic.mac1609_4 	ReceivedBroadcasts 	7
scalar MyScenario.node[61].nic.mac1609_4 	SentPackets 	1
scalar MyScenario.node[61].nic.mac1609_4 	SNIRLostPackets 	4
scalar MyScenario.node[61].nic.mac1609_4 	RXTXLostPackets 	4
scalar MyScenario.node[61].nic.mac1609_4 	TotalLostPackets 	8
scalar MyScenario.node[61].nic.mac1609_4 	DroppedPacketsInMac 	0
scalar MyScenario.node[61].nic.mac1609_4 	TooLittleTime 	0
scalar MyScenario.node[61].nic.mac1609_4 	TimesIntoBackoff 	1
scalar MyScenario.node[61].nic.mac1609_4 	SlotsBackoff 	2
scalar MyScenario.node[61].nic.mac1609_4 	NumInternalContention 	0
scalar MyScenario.node[61].nic.mac1609_4 	totalBusyTime 	0.002321
scalar MyScenario.node[61].veinsmobility 	startTime 	1
scalar MyScenario.node[61].veinsmobility 	totalTime 	69
scalar MyScenario.node[61].veinsmobility 	stopTime 	71
scalar MyScenario.node[61].veinsmobility 	minSpeed 	1.726849680813
scalar MyScenario.node[61].veinsmobility 	maxSpeed 	13.895519534498
scalar MyScenario.node[61].veinsmobility 	totalDistance 	868.85734158299
scalar MyScenario.node[61].veinsmobility 	totalCO2Emission 	173.07488350772
scalar MyScenario.node[62].appl 	generatedWSMs 	1
scalar MyScenario.node[62].appl 	receivedWSMs 	12
scalar MyScenario.node[62].appl 	generatedBSMs 	0
scalar MyScenario.node[62].appl 	receivedBSMs 	0
scalar MyScenario.node[62].appl 	generatedWSAs 	0
scalar MyScenario.node[62].appl 	receivedWSAs 	0
scalar MyScenario.node[62].nic.phy80211p 	busyTime 	0.00011268571428571
scalar MyScenario.node[62].nic.mac1609_4 	ReceivedUnicastPackets 	0
scalar MyScenario.node[62].nic.mac1609_4 	ReceivedBroadcasts 	12
scalar MyScenario.node[62].nic.mac1609_4 	SentPackets 	1
scalar MyScenario.node[62].nic.mac1609_4 	SNIRLostPackets 	22
scalar MyScenario.node[62].nic.mac1609_4 	RXTXLostPackets 	4
scalar MyScenario.node[62].nic.mac1609_4 	TotalLostPackets 	26
scalar MyScenario.node[62].nic.mac1609_4 	DroppedPacketsInMac 	0
scalar MyScenario.node[62].nic.mac1609_4 	TooLittleTime 	0
scalar MyScenario.node[62].nic.mac1609_4 	TimesIntoBackoff 	1
scalar MyScenario.node[62].nic.mac1609_4 	SlotsBackoff 	1
scalar MyScenario.node[62].nic.mac1609_4 	NumInternalContention 	0
scalar MyScenario.node[62].nic.mac1609_4 	totalBusyTime 	0.004641
scalar MyScenario.node[62].veinsmobility 	startTime 	1
scalar MyScenario.node[62].veinsmobility 	totalTime 	69
scalar MyScenario.node[62].veinsmobility 	stopTime 	71
scalar MyScenario.node[62].veinsmobility 	minSpeed 	0.010226182242354
scalar MyScenario.node[62].veinsmobility 	maxSpeed 	13.87949050446
scalar MyScenario.node[62].veinsmobility 	totalDistance 	762.98544979282
scalar MyScenario.node[62].veinsmobility 	totalCO2Emission 	218.0164131652
scalar MyScenario.node[97].appl 	generatedWSMs 	1
scalar MyScenario.node[97].appl 	receivedWSMs 	18
scalar MyScenario.node[97].appl 	generatedBSMs 	0
scalar MyScenario.node[97].appl 	receivedBSMs 	0
scalar MyScenario.node[97].appl 	generatedWSAs 	0
scalar MyScenario.node[97].appl 	receivedWSAs 	0
scalar MyScenario.node[97].nic.phy80211p 	busyTime 	0.00012465671641791
scalar MyScenario.node[97].nic.mac1609_4 	ReceivedUnicastPackets 	0
scalar MyScenario.node[97].nic.mac1609_4 	ReceivedBroadcasts 	18
scalar MyScenario.node[97].nic.mac1609_4 	SentPackets 	1
scalar MyScenario.node[97].nic.mac1609_4 	SNIRLostPackets 	18
scalar MyScenario.node[97].nic.mac1609_4 	RXTXLostPackets 	4
scalar MyScenario.node[97].nic.mac1609_4 	TotalLostPackets 	22
scalar MyScenario.node[97].nic.mac1609_4 	DroppedPacketsInMac 	0
scalar MyScenario.node[97].nic.mac1609_4 	TooLittleTime 	0
scalar MyScenario.node[97].nic.mac1609_4 	TimesIntoBackoff 	1
scalar MyScenario.node[97].nic.mac1609_4 	SlotsBackoff 	3
scalar MyScenario.node[97].nic.mac1609_4 	NumInternalContention 	0
scalar MyScenario.node[97].nic.mac1609_4 	totalBusyTime 	0.006033
scalar MyScenario.node[97].veinsmobility 	startTime 	4
scalar MyScenario.node[97].veinsmobility 	totalTime 	66
scalar MyScenario.node[97].veinsmobility 	stopTime 	71
scalar MyScenario.node[97].veinsmobility 	minSpeed 	0.27749276552005
scalar MyScenario.node[97].veinsmobility 	maxSpeed 	13.896790960827
scalar MyScenario.node[97].veinsmobility 	totalDistance 	673.25412518213
scalar MyScenario.node[97].veinsmobility 	totalCO2Emission 	228.47251096175
scalar MyScenario.node[39].appl 	generatedWSMs 	1
scalar MyScenario.node[39].appl 	receivedWSMs 	16
scalar MyScenario.node[39].appl 	generatedBSMs 	0
scalar MyScenario.node[39].appl 	receivedBSMs 	0
scalar MyScenario.node[39].appl 	generatedWSAs 	0
scalar MyScenario.node[39].appl 	receivedWSAs 	0
scalar MyScenario.node[39].nic.phy80211p 	busyTime 	6.2084507042254e-05
scalar MyScenario.node[39].nic.mac1609_4 	ReceivedUnicastPackets 	0
scalar MyScenario.node[39].nic.mac1609_4 	ReceivedBroadcasts 	16
scalar MyScenario.node[39].nic.mac1609_4 	SentPackets 	1
scalar MyScenario.node[39].nic.mac1609_4 	SNIRLostPackets 	3
scalar MyScenario.node[39].nic.mac1609_4 	RXTXLostPackets 	7
scalar MyScenario.node[39].nic.mac1609_4 	TotalLostPackets 	10
scalar MyScenario.node[39].nic.mac1609_4 	DroppedPacketsInMac 	0
scalar MyScenario.node[39].nic.mac1609_4 	TooLittleTime 	0
scalar MyScenario.node[39].nic.mac1609_4 	TimesIntoBackoff 	1
scalar MyScenario.node[39].nic.mac1609_4 	SlotsBackoff 	3
scalar MyScenario.node[39].nic.mac1609_4 	NumInternalContention 	0
scalar MyScenario.node[39].nic.mac1609_4 	totalBusyTime 	0.004177
[...]
scalar MyScenario.node[77].nic.mac1609_4 	ReceivedBroadcasts 	7
scalar MyScenario.node[77].nic.mac1609_4 	SentPackets 	1
scalar MyScenario.node[77].nic.mac1609_4 	SNIRLostPackets 	14
scalar MyScenario.node[77].nic.mac1609_4 	RXTXLostPackets 	4
scalar MyScenario.node[77].nic.mac1609_4 	TotalLostPackets 	18
scalar MyScenario.node[77].nic.mac1609_4 	DroppedPacketsInMac 	0
scalar MyScenario.node[77].nic.mac1609_4 	TooLittleTime 	0
scalar MyScenario.node[77].nic.mac1609_4 	TimesIntoBackoff 	1
scalar MyScenario.node[77].nic.mac1609_4 	SlotsBackoff 	0
scalar MyScenario.node[77].nic.mac1609_4 	NumInternalContention 	0
scalar MyScenario.node[77].nic.mac1609_4 	totalBusyTime 	0.003017036936
scalar MyScenario.node[77].veinsmobility 	startTime 	1
scalar MyScenario.node[77].veinsmobility 	totalTime 	101
scalar MyScenario.node[77].veinsmobility 	stopTime 	103
scalar MyScenario.node[77].veinsmobility 	minSpeed 	0.18134247483983
scalar MyScenario.node[77].veinsmobility 	maxSpeed 	13.893659848394
scalar MyScenario.node[77].veinsmobility 	totalDistance 	1073.2755467481
scalar MyScenario.node[77].veinsmobility 	totalCO2Emission 	359.9541637824
scalar MyScenario.node[68].appl 	generatedWSMs 	1
scalar MyScenario.node[68].appl 	receivedWSMs 	9
scalar MyScenario.node[68].appl 	generatedBSMs 	0
scalar MyScenario.node[68].appl 	receivedBSMs 	0
scalar MyScenario.node[68].appl 	generatedWSAs 	0
scalar MyScenario.node[68].appl 	receivedWSAs 	0
scalar MyScenario.node[68].nic.phy80211p 	busyTime 	2.2745098039216e-05
scalar MyScenario.node[68].nic.mac1609_4 	ReceivedUnicastPackets 	0
scalar MyScenario.node[68].nic.mac1609_4 	ReceivedBroadcasts 	9
scalar MyScenario.node[68].nic.mac1609_4 	SentPackets 	1
scalar MyScenario.node[68].nic.mac1609_4 	SNIRLostPackets 	1
scalar MyScenario.node[68].nic.mac1609_4 	RXTXLostPackets 	4
scalar MyScenario.node[68].nic.mac1609_4 	TotalLostPackets 	5
scalar MyScenario.node[68].nic.mac1609_4 	DroppedPacketsInMac 	0
scalar MyScenario.node[68].nic.mac1609_4 	TooLittleTime 	0
scalar MyScenario.node[68].nic.mac1609_4 	TimesIntoBackoff 	1
scalar MyScenario.node[68].nic.mac1609_4 	SlotsBackoff 	2
scalar MyScenario.node[68].nic.mac1609_4 	NumInternalContention 	0
scalar MyScenario.node[68].nic.mac1609_4 	totalBusyTime 	0.002553
scalar MyScenario.node[68].veinsmobility 	startTime 	1
scalar MyScenario.node[68].veinsmobility 	totalTime 	101
scalar MyScenario.node[68].veinsmobility 	stopTime 	103
scalar MyScenario.node[68].veinsmobility 	minSpeed 	2.1507710573962
scalar MyScenario.node[68].veinsmobility 	maxSpeed 	13.891244875547
scalar MyScenario.node[68].veinsmobility 	totalDistance 	1274.1914346145
scalar MyScenario.node[68].veinsmobility 	totalCO2Emission 	254.97061655767
scalar MyScenario.node[64].appl 	generatedWSMs 	1
scalar MyScenario.node[64].appl 	receivedWSMs 	1
scalar MyScenario.node[64].appl 	generatedBSMs 	0
scalar MyScenario.node[64].appl 	receivedBSMs 	0
scalar MyScenario.node[64].appl 	generatedWSAs 	0
scalar MyScenario.node[64].appl 	receivedWSAs 	0
scalar MyScenario.node[64].nic.phy80211p 	busyTime 	3.1843137254902e-05
scalar MyScenario.node[64].nic.mac1609_4 	ReceivedUnicastPackets 	0
scalar MyScenario.node[64].nic.mac1609_4 	ReceivedBroadcasts 	1
scalar MyScenario.node[64].nic.mac1609_4 	SentPackets 	1
scalar MyScenario.node[64].nic.mac1609_4 	SNIRLostPackets 	13
scalar MyScenario.node[64].nic.mac1609_4 	RXTXLostPackets 	3
scalar MyScenario.node[64].nic.mac1609_4 	TotalLostPackets 	16
scalar MyScenario.node[64].nic.mac1609_4 	DroppedPacketsInMac 	0
scalar MyScenario.node[64].nic.mac1609_4 	TooLittleTime 	0
scalar MyScenario.node[64].nic.mac1609_4 	TimesIntoBackoff 	1
scalar MyScenario.node[64].nic.mac1609_4 	SlotsBackoff 	0
scalar MyScenario.node[64].nic.mac1609_4 	NumInternalContention 	0
scalar MyScenario.node[64].nic.mac1609_4 	totalBusyTime 	0.001393
scalar MyScenario.node[64].veinsmobility 	startTime 	1
scalar MyScenario.node[64].veinsmobility 	totalTime 	101
scalar MyScenario.node[64].veinsmobility 	stopTime 	103
scalar MyScenario.node[64].veinsmobility 	minSpeed 	1.6635781639256
scalar MyScenario.node[64].veinsmobility 	maxSpeed 	13.89397143519
scalar MyScenario.node[64].veinsmobility 	totalDistance 	1169.6663744146
scalar MyScenario.node[64].veinsmobility 	totalCO2Emission 	319.06152750831
scalar MyScenario.node[46].appl 	generatedWSMs 	1
scalar MyScenario.node[46].appl 	receivedWSMs 	2
scalar MyScenario.node[46].appl 	generatedBSMs 	0
scalar MyScenario.node[46].appl 	receivedBSMs 	0
scalar MyScenario.node[46].appl 	generatedWSAs 	0
scalar MyScenario.node[46].appl 	receivedWSAs 	0
scalar MyScenario.node[46].nic.phy80211p 	busyTime 	1.2888888888889e-05
scalar MyScenario.node[46].nic.mac1609_4 	ReceivedUnicastPackets 	0
scalar MyScenario.node[46].nic.mac1609_4 	ReceivedBroadcasts 	2
scalar MyScenario.node[46].nic.mac1609_4 	SentPackets 	1
scalar MyScenario.node[46].nic.mac1609_4 	SNIRLostPackets 	4
scalar MyScenario.node[46].nic.mac1609_4 	RXTXLostPackets 	2
scalar MyScenario.node[46].nic.mac1609_4 	TotalLostPackets 	6
scalar MyScenario.node[46].nic.mac1609_4 	DroppedPacketsInMac 	0
scalar MyScenario.node[46].nic.mac1609_4 	TooLittleTime 	0
scalar MyScenario.node[46].nic.mac1609_4 	TimesIntoBackoff 	1
scalar MyScenario.node[46].nic.mac1609_4 	SlotsBackoff 	1
scalar MyScenario.node[46].nic.mac1609_4 	NumInternalContention 	0
scalar MyScenario.node[46].nic.mac1609_4 	totalBusyTime 	0.001161
scalar MyScenario.node[46].veinsmobility 	startTime 	1
scalar MyScenario.node[46].veinsmobility 	totalTime 	107
scalar MyScenario.node[46].veinsmobility 	stopTime 	109
scalar MyScenario.node[46].veinsmobility 	minSpeed 	0.0052610610460181
scalar MyScenario.node[46].veinsmobility 	maxSpeed 	13.896643838147
scalar MyScenario.node[46].veinsmobility 	totalDistance 	1064.239811319
scalar MyScenario.node[46].veinsmobility 	totalCO2Emission 	382.29867199388
scalar MyScenario.node[53].appl 	generatedWSMs 	1
scalar MyScenario.node[53].appl 	receivedWSMs 	11
scalar MyScenario.node[53].appl 	generatedBSMs 	0
scalar MyScenario.node[53].appl 	receivedBSMs 	0
scalar MyScenario.node[53].appl 	generatedWSAs 	0
scalar MyScenario.node[53].appl 	receivedWSAs 	0
scalar MyScenario.node[53].nic.phy80211p 	busyTime 	4.0814814814815e-05
scalar MyScenario.node[53].nic.mac1609_4 	ReceivedUnicastPackets 	0
scalar MyScenario.node[53].nic.mac1609_4 	ReceivedBroadcasts 	11
scalar MyScenario.node[53].nic.mac1609_4 	SentPackets 	1
scalar MyScenario.node[53].nic.mac1609_4 	SNIRLostPackets 	8
scalar MyScenario.node[53].nic.mac1609_4 	RXTXLostPackets 	4
scalar MyScenario.node[53].nic.mac1609_4 	TotalLostPackets 	12
scalar MyScenario.node[53].nic.mac1609_4 	DroppedPacketsInMac 	0
scalar MyScenario.node[53].nic.mac1609_4 	TooLittleTime 	0
scalar MyScenario.node[53].nic.mac1609_4 	TimesIntoBackoff 	1
scalar MyScenario.node[53].nic.mac1609_4 	SlotsBackoff 	3
scalar MyScenario.node[53].nic.mac1609_4 	NumInternalContention 	0
scalar MyScenario.node[53].nic.mac1609_4 	totalBusyTime 	0.003249013671
scalar MyScenario.node[53].veinsmobility 	startTime 	1
scalar MyScenario.node[53].veinsmobility 	totalTime 	107
scalar MyScenario.node[53].veinsmobility 	stopTime 	109
scalar MyScenario.node[53].veinsmobility 	minSpeed 	2.3015496139415
scalar MyScenario.node[53].veinsmobility 	maxSpeed 	13.889438644215
scalar MyScenario.node[53].veinsmobility 	totalDistance 	1266.1026808014
scalar MyScenario.node[53].veinsmobility 	totalCO2Emission 	339.3953435337
scalar MyScenario.node[29].appl 	generatedWSMs 	1
scalar MyScenario.node[29].appl 	receivedWSMs 	1
scalar MyScenario.node[29].appl 	generatedBSMs 	0
scalar MyScenario.node[29].appl 	receivedBSMs 	0
scalar MyScenario.node[29].appl 	generatedWSAs 	0
scalar MyScenario.node[29].appl 	receivedWSAs 	0
scalar MyScenario.node[29].nic.phy80211p 	busyTime 	1.7185185185185e-05
scalar MyScenario.node[29].nic.mac1609_4 	ReceivedUnicastPackets 	0
scalar MyScenario.node[29].nic.mac1609_4 	ReceivedBroadcasts 	1
scalar MyScenario.node[29].nic.mac1609_4 	SentPackets 	1
scalar MyScenario.node[29].nic.mac1609_4 	SNIRLostPackets 	7
scalar MyScenario.node[29].nic.mac1609_4 	RXTXLostPackets 	2
scalar MyScenario.node[29].nic.mac1609_4 	TotalLostPackets 	9
scalar MyScenario.node[29].nic.mac1609_4 	DroppedPacketsInMac 	0
scalar MyScenario.node[29].nic.mac1609_4 	TooLittleTime 	0
scalar MyScenario.node[29].nic.mac1609_4 	TimesIntoBackoff 	1
scalar MyScenario.node[29].nic.mac1609_4 	SlotsBackoff 	3
scalar MyScenario.node[29].nic.mac1609_4 	NumInternalContention 	0
scalar MyScenario.node[29].nic.mac1609_4 	totalBusyTime 	0.000929
scalar MyScenario.node[29].veinsmobility 	startTime 	1
scalar MyScenario.node[29].veinsmobility 	totalTime 	107
scalar MyScenario.node[29].veinsmobility 	stopTime 	109
scalar MyScenario.node[29].veinsmobility 	minSpeed 	0.18230363285307
scalar MyScenario.node[29].veinsmobility 	maxSpeed 	13.895525614126
scalar MyScenario.node[29].veinsmobility 	totalDistance 	1170.8313222286
scalar MyScenario.node[29].veinsmobility 	totalCO2Emission 	342.8652966085
scalar MyScenario.node[40].appl 	generatedWSMs 	1
scalar MyScenario.node[40].appl 	receivedWSMs 	5
scalar MyScenario.node[40].appl 	generatedBSMs 	0
scalar MyScenario.node[40].appl 	receivedBSMs 	0
scalar MyScenario.node[40].appl 	generatedWSAs 	0
scalar MyScenario.node[40].appl 	receivedWSAs 	0
scalar MyScenario.node[40].nic.phy80211p 	busyTime 	3.8330434782609e-05
scalar MyScenario.node[40].nic.mac1609_4 	ReceivedUnicastPackets 	0
scalar MyScenario.node[40].nic.mac1609_4 	ReceivedBroadcasts 	5
scalar MyScenario.node[40].nic.mac1609_4 	SentPackets 	1
scalar MyScenario.node[40].nic.mac1609_4 	SNIRLostPackets 	14
scalar MyScenario.node[40].nic.mac1609_4 	RXTXLostPackets 	0
scalar MyScenario.node[40].nic.mac1609_4 	TotalLostPackets 	14
scalar MyScenario.node[40].nic.mac1609_4 	DroppedPacketsInMac 	0
scalar MyScenario.node[40].nic.mac1609_4 	TooLittleTime 	0
scalar MyScenario.node[40].nic.mac1609_4 	TimesIntoBackoff 	1
scalar MyScenario.node[40].nic.mac1609_4 	SlotsBackoff 	1
scalar MyScenario.node[40].nic.mac1609_4 	NumInternalContention 	0
scalar MyScenario.node[40].nic.mac1609_4 	totalBusyTime 	0.002089
scalar MyScenario.node[40].veinsmobility 	startTime 	1
scalar MyScenario.node[40].veinsmobility 	totalTime 	114
scalar MyScenario.node[40].veinsmobility 	stopTime 	116
scalar MyScenario.node[40].veinsmobility 	minSpeed 	2.0200251491275
scalar MyScenario.node[40].veinsmobility 	maxSpeed 	13.885081829783
scalar MyScenario.node[40].veinsmobility 	totalDistance 	1273.2063668183
scalar MyScenario.node[40].veinsmobility 	totalCO2Emission 	395.0728451236
scalar MyScenario.node[33].appl 	generatedWSMs 	1
scalar MyScenario.node[33].appl 	receivedWSMs 	12
scalar MyScenario.node[33].appl 	generatedBSMs 	0
scalar MyScenario.node[33].appl 	receivedBSMs 	0
scalar MyScenario.node[33].appl 	generatedWSAs 	0
scalar MyScenario.node[33].appl 	receivedWSAs 	0
scalar MyScenario.node[33].nic.phy80211p 	busyTime 	4e-05
scalar MyScenario.node[33].nic.mac1609_4 	ReceivedUnicastPackets 	0
scalar MyScenario.node[33].nic.mac1609_4 	ReceivedBroadcasts 	12
scalar MyScenario.node[33].nic.mac1609_4 	SentPackets 	1
scalar MyScenario.node[33].nic.mac1609_4 	SNIRLostPackets 	8
scalar MyScenario.node[33].nic.mac1609_4 	RXTXLostPackets 	3
scalar MyScenario.node[33].nic.mac1609_4 	TotalLostPackets 	11
scalar MyScenario.node[33].nic.mac1609_4 	DroppedPacketsInMac 	0
scalar MyScenario.node[33].nic.mac1609_4 	TooLittleTime 	0
scalar MyScenario.node[33].nic.mac1609_4 	TimesIntoBackoff 	1
scalar MyScenario.node[33].nic.mac1609_4 	SlotsBackoff 	2
scalar MyScenario.node[33].nic.mac1609_4 	NumInternalContention 	0
scalar MyScenario.node[33].nic.mac1609_4 	totalBusyTime 	0.003481
scalar MyScenario.node[33].veinsmobility 	startTime 	1
scalar MyScenario.node[33].veinsmobility 	totalTime 	115
scalar MyScenario.node[33].veinsmobility 	stopTime 	117
scalar MyScenario.node[33].veinsmobility 	minSpeed 	1.926401687297
scalar MyScenario.node[33].veinsmobility 	maxSpeed 	13.899873962905
scalar MyScenario.node[33].veinsmobility 	totalDistance 	1356.2955172697
scalar MyScenario.node[33].veinsmobility 	totalCO2Emission 	357.70743929995
scalar MyScenario.node[3].appl 	generatedWSMs 	1
scalar MyScenario.node[3].appl 	receivedWSMs 	1
scalar MyScenario.node[3].appl 	generatedBSMs 	0
scalar MyScenario.node[3].appl 	receivedBSMs 	0
scalar MyScenario.node[3].appl 	generatedWSAs 	0
scalar MyScenario.node[3].appl 	receivedWSAs 	0
scalar MyScenario.node[3].nic.phy80211p 	busyTime 	3.741935483871e-06
scalar MyScenario.node[3].nic.mac1609_4 	ReceivedUnicastPackets 	0
scalar MyScenario.node[3].nic.mac1609_4 	ReceivedBroadcasts 	1
scalar MyScenario.node[3].nic.mac1609_4 	SentPackets 	1
scalar MyScenario.node[3].nic.mac1609_4 	SNIRLostPackets 	1
scalar MyScenario.node[3].nic.mac1609_4 	RXTXLostPackets 	5
scalar MyScenario.node[3].nic.mac1609_4 	TotalLostPackets 	6
scalar MyScenario.node[3].nic.mac1609_4 	DroppedPacketsInMac 	0
scalar MyScenario.node[3].nic.mac1609_4 	TooLittleTime 	0
scalar MyScenario.node[3].nic.mac1609_4 	TimesIntoBackoff 	1
scalar MyScenario.node[3].nic.mac1609_4 	SlotsBackoff 	1
scalar MyScenario.node[3].nic.mac1609_4 	NumInternalContention 	0
scalar MyScenario.node[3].nic.mac1609_4 	totalBusyTime 	0.000697
scalar MyScenario.node[3].veinsmobility 	startTime 	1
scalar MyScenario.node[3].veinsmobility 	totalTime 	123
scalar MyScenario.node[3].veinsmobility 	stopTime 	125
scalar MyScenario.node[3].veinsmobility 	minSpeed 	2.2354228100972
scalar MyScenario.node[3].veinsmobility 	maxSpeed 	13.885294265323
scalar MyScenario.node[3].veinsmobility 	totalDistance 	1467.379266799
scalar MyScenario.node[3].veinsmobility 	totalCO2Emission 	382.74342673293
scalar MyScenario.node[93].appl 	generatedWSMs 	1
scalar MyScenario.node[93].appl 	receivedWSMs 	9
scalar MyScenario.node[93].appl 	generatedBSMs 	0
scalar MyScenario.node[93].appl 	receivedBSMs 	0
scalar MyScenario.node[93].appl 	generatedWSAs 	0
scalar MyScenario.node[93].appl 	receivedWSAs 	0
scalar MyScenario.node[93].nic.phy80211p 	busyTime 	3.0426229508197e-05
scalar MyScenario.node[93].nic.mac1609_4 	ReceivedUnicastPackets 	0
scalar MyScenario.node[93].nic.mac1609_4 	ReceivedBroadcasts 	9
scalar MyScenario.node[93].nic.mac1609_4 	SentPackets 	1
scalar MyScenario.node[93].nic.mac1609_4 	SNIRLostPackets 	7
scalar MyScenario.node[93].nic.mac1609_4 	RXTXLostPackets 	6
scalar MyScenario.node[93].nic.mac1609_4 	TotalLostPackets 	13
scalar MyScenario.node[93].nic.mac1609_4 	DroppedPacketsInMac 	0
scalar MyScenario.node[93].nic.mac1609_4 	TooLittleTime 	0
scalar MyScenario.node[93].nic.mac1609_4 	TimesIntoBackoff 	1
scalar MyScenario.node[93].nic.mac1609_4 	SlotsBackoff 	2
scalar MyScenario.node[93].nic.mac1609_4 	NumInternalContention 	0
scalar MyScenario.node[93].nic.mac1609_4 	totalBusyTime 	0.002785
scalar MyScenario.node[93].veinsmobility 	startTime 	4
scalar MyScenario.node[93].veinsmobility 	totalTime 	121
scalar MyScenario.node[93].veinsmobility 	stopTime 	126
scalar MyScenario.node[93].veinsmobility 	minSpeed 	2.0431028676452
scalar MyScenario.node[93].veinsmobility 	maxSpeed 	13.896740172361
scalar MyScenario.node[93].veinsmobility 	totalDistance 	1371.1274861299
scalar MyScenario.node[93].veinsmobility 	totalCO2Emission 	411.41369953204
scalar MyScenario.node[81].appl 	generatedWSMs 	1
scalar MyScenario.node[81].appl 	receivedWSMs 	9
scalar MyScenario.node[81].appl 	generatedBSMs 	0
scalar MyScenario.node[81].appl 	receivedBSMs 	0
scalar MyScenario.node[81].appl 	generatedWSAs 	0
scalar MyScenario.node[81].appl 	receivedWSAs 	0
scalar MyScenario.node[81].nic.phy80211p 	busyTime 	2.7619047619048e-05
scalar MyScenario.node[81].nic.mac1609_4 	ReceivedUnicastPackets 	0
scalar MyScenario.node[81].nic.mac1609_4 	ReceivedBroadcasts 	9
scalar MyScenario.node[81].nic.mac1609_4 	SentPackets 	1
scalar MyScenario.node[81].nic.mac1609_4 	SNIRLostPackets 	6
scalar MyScenario.node[81].nic.mac1609_4 	RXTXLostPackets 	6
scalar MyScenario.node[81].nic.mac1609_4 	TotalLostPackets 	12
scalar MyScenario.node[81].nic.mac1609_4 	DroppedPacketsInMac 	0
scalar MyScenario.node[81].nic.mac1609_4 	TooLittleTime 	0
scalar MyScenario.node[81].nic.mac1609_4 	TimesIntoBackoff 	1
scalar MyScenario.node[81].nic.mac1609_4 	SlotsBackoff 	2
scalar MyScenario.node[81].nic.mac1609_4 	NumInternalContention 	0
scalar MyScenario.node[81].nic.mac1609_4 	totalBusyTime 	0.002553
scalar MyScenario.node[81].veinsmobility 	startTime 	1
scalar MyScenario.node[81].veinsmobility 	totalTime 	125
scalar MyScenario.node[81].veinsmobility 	stopTime 	127
scalar MyScenario.node[81].veinsmobility 	minSpeed 	0.019910622667442
scalar MyScenario.node[81].veinsmobility 	maxSpeed 	13.886091297609
scalar MyScenario.node[81].veinsmobility 	totalDistance 	1340.8673078022
scalar MyScenario.node[81].veinsmobility 	totalCO2Emission 	434.56164219562
scalar MyScenario.node[80].appl 	generatedWSMs 	1
scalar MyScenario.node[80].appl 	receivedWSMs 	2
scalar MyScenario.node[80].appl 	generatedBSMs 	0
scalar MyScenario.node[80].appl 	receivedBSMs 	0
scalar MyScenario.node[80].appl 	generatedWSAs 	0
scalar MyScenario.node[80].appl 	receivedWSAs 	0
scalar MyScenario.node[80].nic.phy80211p 	busyTime 	1.9630769230769e-05
scalar MyScenario.node[80].nic.mac1609_4 	ReceivedUnicastPackets 	0
scalar MyScenario.node[80].nic.mac1609_4 	ReceivedBroadcasts 	2
scalar MyScenario.node[80].nic.mac1609_4 	SentPackets 	1
scalar MyScenario.node[80].nic.mac1609_4 	SNIRLostPackets 	9
scalar MyScenario.node[80].nic.mac1609_4 	RXTXLostPackets 	0
scalar MyScenario.node[80].nic.mac1609_4 	TotalLostPackets 	9
scalar MyScenario.node[80].nic.mac1609_4 	DroppedPacketsInMac 	0
scalar MyScenario.node[80].nic.mac1609_4 	TooLittleTime 	0
scalar MyScenario.node[80].nic.mac1609_4 	TimesIntoBackoff 	1
scalar MyScenario.node[80].nic.mac1609_4 	SlotsBackoff 	0
scalar MyScenario.node[80].nic.mac1609_4 	NumInternalContention 	0
scalar MyScenario.node[80].nic.mac1609_4 	totalBusyTime 	0.001161
scalar MyScenario.node[80].veinsmobility 	startTime 	1
scalar MyScenario.node[80].veinsmobility 	totalTime 	129
scalar MyScenario.node[80].veinsmobility 	stopTime 	131
scalar MyScenario.node[80].veinsmobility 	minSpeed 	0.018136845163142
scalar MyScenario.node[80].veinsmobility 	maxSpeed 	13.899482104508
scalar MyScenario.node[80].veinsmobility 	totalDistance 	1365.2943818889
scalar MyScenario.node[80].veinsmobility 	totalCO2Emission 	443.32164879688
scalar MyScenario.node[92].appl 	generatedWSMs 	1
scalar MyScenario.node[92].appl 	receivedWSMs 	6
scalar MyScenario.node[92].appl 	generatedBSMs 	0
scalar MyScenario.node[92].appl 	receivedBSMs 	0
scalar MyScenario.node[92].appl 	generatedWSAs 	0
scalar MyScenario.node[92].appl 	receivedWSAs 	0
scalar MyScenario.node[92].nic.phy80211p 	busyTime 	1.8125e-05
scalar MyScenario.node[92].nic.mac1609_4 	ReceivedUnicastPackets 	0
scalar MyScenario.node[92].nic.mac1609_4 	ReceivedBroadcasts 	6
scalar MyScenario.node[92].nic.mac1609_4 	SentPackets 	1
scalar MyScenario.node[92].nic.mac1609_4 	SNIRLostPackets 	4
scalar MyScenario.node[92].nic.mac1609_4 	RXTXLostPackets 	9
scalar MyScenario.node[92].nic.mac1609_4 	TotalLostPackets 	13
scalar MyScenario.node[92].nic.mac1609_4 	DroppedPacketsInMac 	0
scalar MyScenario.node[92].nic.mac1609_4 	TooLittleTime 	0
scalar MyScenario.node[92].nic.mac1609_4 	TimesIntoBackoff 	1
scalar MyScenario.node[92].nic.mac1609_4 	SlotsBackoff 	2
scalar MyScenario.node[92].nic.mac1609_4 	NumInternalContention 	0
scalar MyScenario.node[92].nic.mac1609_4 	totalBusyTime 	0.001857
scalar MyScenario.node[92].veinsmobility 	startTime 	4
scalar MyScenario.node[92].veinsmobility 	totalTime 	127
scalar MyScenario.node[92].veinsmobility 	stopTime 	132
scalar MyScenario.node[92].veinsmobility 	minSpeed 	0.22731461625239
scalar MyScenario.node[92].veinsmobility 	maxSpeed 	13.897014116682
scalar MyScenario.node[92].veinsmobility 	totalDistance 	1351.4074148242
scalar MyScenario.node[92].veinsmobility 	totalCO2Emission 	448.24370126645
