version 2
run General-16-20170829-17:39:49-8100
attr configname General
attr datetime 20170829-17:39:49
attr density 200
attr experiment General
attr inifile omnetpp.ini
attr iterationvars $density=200
attr iterationvars2 "$density=200, $repetition=6"
attr measurement $density=200
attr network com.liborio.pi.MyScenario
attr processid 8100
attr repetition 6
attr replication #6
attr resultdir results
attr runnumber 16
attr seedset 6
param **.coreDebug false
param **.debug false
param *.**.nic.mac1609_4.bitrate 6Mbps
param *.**.nic.mac1609_4.txPower 20mW
param *.**.nic.mac1609_4.useServiceChannel true
param *.**.nic.phy80211p.analogueModels "xmldoc(\"config.xml\")"
param *.**.nic.phy80211p.antenna "xmldoc(\"antenna.xml\", \"/root/Antenna[@id='monopole']\")"
param *.**.nic.phy80211p.decider "xmldoc(\"config.xml\")"
param *.**.nic.phy80211p.sensitivity -84.39dBm
param *.**.nic.phy80211p.thermalNoise -110dBm
param *.**.nic.phy80211p.usePropagationDelay true
param *.**.nic.phy80211p.useThermalNoise true
param *.annotations.draw true
param *.connectionManager.drawMaxIntfDist false
param *.connectionManager.maxInterfDist 2600m
param *.connectionManager.sendDirect true
param *.manager.autoShutdown true
param *.manager.host "\"localhost\""
param *.manager.launchConfig "xmldoc(string(${density = 100, 200, 300, 400})+\"_\"+ string(${repetition})+\".launchd.xml\")"
param *.manager.port 9999
param *.manager.updateInterval 1s
param *.node[*].appl.beaconInterval 1s
param *.node[*].appl.dataOnSch true
param *.node[*].appl.headerLength "80 bit"
param *.node[*].appl.isSource false
param *.node[*].appl.numMsgs 100
param *.node[*].appl.sendBeacons false
param *.node[*].appl.stopTrafficTime 130s
param *.node[*].appl.wsmInterval 3s
param *.node[*].applType "\"Flooding\""
param *.node[*].veinsmobility.x 0
param *.node[*].veinsmobility.y 0
param *.node[*].veinsmobility.z 1.895
param *.node[*].veinsmobilityType.debug true
param *.node[0].appl.isSource true
param *.playgroundSizeX 2500m
param *.playgroundSizeY 2500m
param *.playgroundSizeZ 50m

scalar . 	density 	200
scalar MyScenario.node[101].appl 	generatedWSMs 	0
scalar MyScenario.node[101].appl 	receivedWSMs 	0
scalar MyScenario.node[101].appl 	generatedBSMs 	0
scalar MyScenario.node[101].appl 	receivedBSMs 	0
scalar MyScenario.node[101].appl 	generatedWSAs 	0
scalar MyScenario.node[101].appl 	receivedWSAs 	0
scalar MyScenario.node[101].nic.phy80211p 	busyTime 	0
scalar MyScenario.node[101].nic.mac1609_4 	ReceivedUnicastPackets 	0
scalar MyScenario.node[101].nic.mac1609_4 	ReceivedBroadcasts 	0
scalar MyScenario.node[101].nic.mac1609_4 	SentPackets 	0
scalar MyScenario.node[101].nic.mac1609_4 	SNIRLostPackets 	0
scalar MyScenario.node[101].nic.mac1609_4 	RXTXLostPackets 	0
scalar MyScenario.node[101].nic.mac1609_4 	TotalLostPackets 	0
scalar MyScenario.node[101].nic.mac1609_4 	DroppedPacketsInMac 	0
scalar MyScenario.node[101].nic.mac1609_4 	TooLittleTime 	0
scalar MyScenario.node[101].nic.mac1609_4 	TimesIntoBackoff 	0
scalar MyScenario.node[101].nic.mac1609_4 	SlotsBackoff 	0
scalar MyScenario.node[101].nic.mac1609_4 	NumInternalContention 	0
scalar MyScenario.node[101].nic.mac1609_4 	totalBusyTime 	0
scalar MyScenario.node[101].veinsmobility 	startTime 	1
scalar MyScenario.node[101].veinsmobility 	totalTime 	9
scalar MyScenario.node[101].veinsmobility 	stopTime 	11
scalar MyScenario.node[101].veinsmobility 	minSpeed 	2.0191258646315
scalar MyScenario.node[101].veinsmobility 	maxSpeed 	13.034327741526
scalar MyScenario.node[101].veinsmobility 	totalDistance 	79.177303153323
scalar MyScenario.node[101].veinsmobility 	totalCO2Emission 	35.465310525945
scalar MyScenario.node[90].appl 	generatedWSMs 	1
scalar MyScenario.node[90].appl 	receivedWSMs 	7
scalar MyScenario.node[90].appl 	generatedBSMs 	0
scalar MyScenario.node[90].appl 	receivedBSMs 	0
scalar MyScenario.node[90].appl 	generatedWSAs 	0
scalar MyScenario.node[90].appl 	receivedWSAs 	0
scalar MyScenario.node[90].nic.phy80211p 	busyTime 	0.00030526315789474
scalar MyScenario.node[90].nic.mac1609_4 	ReceivedUnicastPackets 	0
scalar MyScenario.node[90].nic.mac1609_4 	ReceivedBroadcasts 	7
scalar MyScenario.node[90].nic.mac1609_4 	SentPackets 	1
scalar MyScenario.node[90].nic.mac1609_4 	SNIRLostPackets 	18
scalar MyScenario.node[90].nic.mac1609_4 	RXTXLostPackets 	8
scalar MyScenario.node[90].nic.mac1609_4 	TotalLostPackets 	26
scalar MyScenario.node[90].nic.mac1609_4 	DroppedPacketsInMac 	0
scalar MyScenario.node[90].nic.mac1609_4 	TooLittleTime 	0
scalar MyScenario.node[90].nic.mac1609_4 	TimesIntoBackoff 	1
scalar MyScenario.node[90].nic.mac1609_4 	SlotsBackoff 	1
scalar MyScenario.node[90].nic.mac1609_4 	NumInternalContention 	0
scalar MyScenario.node[90].nic.mac1609_4 	totalBusyTime 	0.003249160837
scalar MyScenario.node[90].veinsmobility 	startTime 	1
scalar MyScenario.node[90].veinsmobility 	totalTime 	18
scalar MyScenario.node[90].veinsmobility 	stopTime 	20
scalar MyScenario.node[90].veinsmobility 	minSpeed 	1.5660935222637
scalar MyScenario.node[90].veinsmobility 	maxSpeed 	13.597614414361
scalar MyScenario.node[90].veinsmobility 	totalDistance 	182.33865764689
scalar MyScenario.node[90].veinsmobility 	totalCO2Emission 	71.158112992705
scalar MyScenario.node[137].appl 	generatedWSMs 	0
scalar MyScenario.node[137].appl 	receivedWSMs 	0
scalar MyScenario.node[137].appl 	generatedBSMs 	0
scalar MyScenario.node[137].appl 	receivedBSMs 	0
scalar MyScenario.node[137].appl 	generatedWSAs 	0
scalar MyScenario.node[137].appl 	receivedWSAs 	0
scalar MyScenario.node[137].nic.phy80211p 	busyTime 	2.32e-05
scalar MyScenario.node[137].nic.mac1609_4 	ReceivedUnicastPackets 	0
scalar MyScenario.node[137].nic.mac1609_4 	ReceivedBroadcasts 	0
scalar MyScenario.node[137].nic.mac1609_4 	SentPackets 	0
scalar MyScenario.node[137].nic.mac1609_4 	SNIRLostPackets 	2
scalar MyScenario.node[137].nic.mac1609_4 	RXTXLostPackets 	0
scalar MyScenario.node[137].nic.mac1609_4 	TotalLostPackets 	2
scalar MyScenario.node[137].nic.mac1609_4 	DroppedPacketsInMac 	0
scalar MyScenario.node[137].nic.mac1609_4 	TooLittleTime 	0
scalar MyScenario.node[137].nic.mac1609_4 	TimesIntoBackoff 	0
scalar MyScenario.node[137].nic.mac1609_4 	SlotsBackoff 	0
scalar MyScenario.node[137].nic.mac1609_4 	NumInternalContention 	0
scalar MyScenario.node[137].nic.mac1609_4 	totalBusyTime 	0.000232
scalar MyScenario.node[137].veinsmobility 	startTime 	1
scalar MyScenario.node[137].veinsmobility 	totalTime 	19
scalar MyScenario.node[137].veinsmobility 	stopTime 	21
scalar MyScenario.node[137].veinsmobility 	minSpeed 	2.4251362435985
scalar MyScenario.node[137].veinsmobility 	maxSpeed 	13.873107772158
scalar MyScenario.node[137].veinsmobility 	totalDistance 	184.79174884968
scalar MyScenario.node[137].veinsmobility 	totalCO2Emission 	76.511866814106
scalar MyScenario.node[78].appl 	generatedWSMs 	0
scalar MyScenario.node[78].appl 	receivedWSMs 	0
scalar MyScenario.node[78].appl 	generatedBSMs 	0
scalar MyScenario.node[78].appl 	receivedBSMs 	0
scalar MyScenario.node[78].appl 	generatedWSAs 	0
scalar MyScenario.node[78].appl 	receivedWSAs 	0
scalar MyScenario.node[78].nic.phy80211p 	busyTime 	0
scalar MyScenario.node[78].nic.mac1609_4 	ReceivedUnicastPackets 	0
scalar MyScenario.node[78].nic.mac1609_4 	ReceivedBroadcasts 	0
scalar MyScenario.node[78].nic.mac1609_4 	SentPackets 	0
scalar MyScenario.node[78].nic.mac1609_4 	SNIRLostPackets 	0
scalar MyScenario.node[78].nic.mac1609_4 	RXTXLostPackets 	0
scalar MyScenario.node[78].nic.mac1609_4 	TotalLostPackets 	0
scalar MyScenario.node[78].nic.mac1609_4 	DroppedPacketsInMac 	0
scalar MyScenario.node[78].nic.mac1609_4 	TooLittleTime 	0
scalar MyScenario.node[78].nic.mac1609_4 	TimesIntoBackoff 	0
scalar MyScenario.node[78].nic.mac1609_4 	SlotsBackoff 	0
scalar MyScenario.node[78].nic.mac1609_4 	NumInternalContention 	0
scalar MyScenario.node[78].nic.mac1609_4 	totalBusyTime 	0
scalar MyScenario.node[78].veinsmobility 	startTime 	1
scalar MyScenario.node[78].veinsmobility 	totalTime 	25
scalar MyScenario.node[78].veinsmobility 	stopTime 	27
scalar MyScenario.node[78].veinsmobility 	minSpeed 	2.2429789395072
scalar MyScenario.node[78].veinsmobility 	maxSpeed 	13.756433939538
scalar MyScenario.node[78].veinsmobility 	totalDistance 	270.63680964836
scalar MyScenario.node[78].veinsmobility 	totalCO2Emission 	93.616326937116
scalar MyScenario.node[33].appl 	generatedWSMs 	1
scalar MyScenario.node[33].appl 	receivedWSMs 	2
scalar MyScenario.node[33].appl 	generatedBSMs 	0
scalar MyScenario.node[33].appl 	receivedBSMs 	0
scalar MyScenario.node[33].appl 	generatedWSAs 	0
scalar MyScenario.node[33].appl 	receivedWSAs 	0
scalar MyScenario.node[33].nic.phy80211p 	busyTime 	0.00022371428571429
scalar MyScenario.node[33].nic.mac1609_4 	ReceivedUnicastPackets 	0
scalar MyScenario.node[33].nic.mac1609_4 	ReceivedBroadcasts 	2
scalar MyScenario.node[33].nic.mac1609_4 	SentPackets 	1
scalar MyScenario.node[33].nic.mac1609_4 	SNIRLostPackets 	25
scalar MyScenario.node[33].nic.mac1609_4 	RXTXLostPackets 	0
scalar MyScenario.node[33].nic.mac1609_4 	TotalLostPackets 	25
scalar MyScenario.node[33].nic.mac1609_4 	DroppedPacketsInMac 	0
scalar MyScenario.node[33].nic.mac1609_4 	TooLittleTime 	0
scalar MyScenario.node[33].nic.mac1609_4 	TimesIntoBackoff 	1
scalar MyScenario.node[33].nic.mac1609_4 	SlotsBackoff 	0
scalar MyScenario.node[33].nic.mac1609_4 	NumInternalContention 	0
scalar MyScenario.node[33].nic.mac1609_4 	totalBusyTime 	0.001857
scalar MyScenario.node[33].veinsmobility 	startTime 	1
scalar MyScenario.node[33].veinsmobility 	totalTime 	27
scalar MyScenario.node[33].veinsmobility 	stopTime 	29
scalar MyScenario.node[33].veinsmobility 	minSpeed 	1.5390149759129
scalar MyScenario.node[33].veinsmobility 	maxSpeed 	13.599879451725
scalar MyScenario.node[33].veinsmobility 	totalDistance 	292.20986757109
scalar MyScenario.node[33].veinsmobility 	totalCO2Emission 	92.262197625986
scalar MyScenario.node[52].appl 	generatedWSMs 	0
scalar MyScenario.node[52].appl 	receivedWSMs 	0
scalar MyScenario.node[52].appl 	generatedBSMs 	0
scalar MyScenario.node[52].appl 	receivedBSMs 	0
scalar MyScenario.node[52].appl 	generatedWSAs 	0
scalar MyScenario.node[52].appl 	receivedWSAs 	0
scalar MyScenario.node[52].nic.phy80211p 	busyTime 	0
scalar MyScenario.node[52].nic.mac1609_4 	ReceivedUnicastPackets 	0
scalar MyScenario.node[52].nic.mac1609_4 	ReceivedBroadcasts 	0
scalar MyScenario.node[52].nic.mac1609_4 	SentPackets 	0
scalar MyScenario.node[52].nic.mac1609_4 	SNIRLostPackets 	0
scalar MyScenario.node[52].nic.mac1609_4 	RXTXLostPackets 	0
scalar MyScenario.node[52].nic.mac1609_4 	TotalLostPackets 	0
scalar MyScenario.node[52].nic.mac1609_4 	DroppedPacketsInMac 	0
scalar MyScenario.node[52].nic.mac1609_4 	TooLittleTime 	0
scalar MyScenario.node[52].nic.mac1609_4 	TimesIntoBackoff 	0
scalar MyScenario.node[52].nic.mac1609_4 	SlotsBackoff 	0
scalar MyScenario.node[52].nic.mac1609_4 	NumInternalContention 	0
scalar MyScenario.node[52].nic.mac1609_4 	totalBusyTime 	0
scalar MyScenario.node[52].veinsmobility 	startTime 	1
scalar MyScenario.node[52].veinsmobility 	totalTime 	29
scalar MyScenario.node[52].veinsmobility 	stopTime 	31
scalar MyScenario.node[52].veinsmobility 	minSpeed 	0.58442355324036
scalar MyScenario.node[52].veinsmobility 	maxSpeed 	13.849873119593
scalar MyScenario.node[52].veinsmobility 	totalDistance 	279.11107696034
scalar MyScenario.node[52].veinsmobility 	totalCO2Emission 	98.32601301499
scalar MyScenario.node[35].appl 	generatedWSMs 	1
scalar MyScenario.node[35].appl 	receivedWSMs 	12
scalar MyScenario.node[35].appl 	generatedBSMs 	0
scalar MyScenario.node[35].appl 	receivedBSMs 	0
scalar MyScenario.node[35].appl 	generatedWSAs 	0
scalar MyScenario.node[35].appl 	receivedWSAs 	0
scalar MyScenario.node[35].nic.phy80211p 	busyTime 	0.00019105882352941
scalar MyScenario.node[35].nic.mac1609_4 	ReceivedUnicastPackets 	0
scalar MyScenario.node[35].nic.mac1609_4 	ReceivedBroadcasts 	12
scalar MyScenario.node[35].nic.mac1609_4 	SentPackets 	1
scalar MyScenario.node[35].nic.mac1609_4 	SNIRLostPackets 	16
scalar MyScenario.node[35].nic.mac1609_4 	RXTXLostPackets 	0
scalar MyScenario.node[35].nic.mac1609_4 	TotalLostPackets 	16
scalar MyScenario.node[35].nic.mac1609_4 	DroppedPacketsInMac 	0
scalar MyScenario.node[35].nic.mac1609_4 	TooLittleTime 	0
scalar MyScenario.node[35].nic.mac1609_4 	TimesIntoBackoff 	1
scalar MyScenario.node[35].nic.mac1609_4 	SlotsBackoff 	2
scalar MyScenario.node[35].nic.mac1609_4 	NumInternalContention 	0
scalar MyScenario.node[35].nic.mac1609_4 	totalBusyTime 	0.003713
scalar MyScenario.node[35].veinsmobility 	startTime 	1
scalar MyScenario.node[35].veinsmobility 	totalTime 	33
scalar MyScenario.node[35].veinsmobility 	stopTime 	35
scalar MyScenario.node[35].veinsmobility 	minSpeed 	1.8136321781902
scalar MyScenario.node[35].veinsmobility 	maxSpeed 	13.756282775779
scalar MyScenario.node[35].veinsmobility 	totalDistance 	379.9932171792
scalar MyScenario.node[35].veinsmobility 	totalCO2Emission 	96.904960662496
scalar MyScenario.node[85].appl 	generatedWSMs 	0
scalar MyScenario.node[85].appl 	receivedWSMs 	0
scalar MyScenario.node[85].appl 	generatedBSMs 	0
scalar MyScenario.node[85].appl 	receivedBSMs 	0
scalar MyScenario.node[85].appl 	generatedWSAs 	0
scalar MyScenario.node[85].appl 	receivedWSAs 	0
scalar MyScenario.node[85].nic.phy80211p 	busyTime 	7.2914285714286e-05
scalar MyScenario.node[85].nic.mac1609_4 	ReceivedUnicastPackets 	0
scalar MyScenario.node[85].nic.mac1609_4 	ReceivedBroadcasts 	0
scalar MyScenario.node[85].nic.mac1609_4 	SentPackets 	0
scalar MyScenario.node[85].nic.mac1609_4 	SNIRLostPackets 	11
scalar MyScenario.node[85].nic.mac1609_4 	RXTXLostPackets 	0
scalar MyScenario.node[85].nic.mac1609_4 	TotalLostPackets 	11
scalar MyScenario.node[85].nic.mac1609_4 	DroppedPacketsInMac 	0
scalar MyScenario.node[85].nic.mac1609_4 	TooLittleTime 	0
scalar MyScenario.node[85].nic.mac1609_4 	TimesIntoBackoff 	0
scalar MyScenario.node[85].nic.mac1609_4 	SlotsBackoff 	0
scalar MyScenario.node[85].nic.mac1609_4 	NumInternalContention 	0
scalar MyScenario.node[85].nic.mac1609_4 	totalBusyTime 	0.000464
scalar MyScenario.node[85].veinsmobility 	startTime 	1
scalar MyScenario.node[85].veinsmobility 	totalTime 	34
scalar MyScenario.node[85].veinsmobility 	stopTime 	36
scalar MyScenario.node[85].veinsmobility 	minSpeed 	2.3406288664555
scalar MyScenario.node[85].veinsmobility 	maxSpeed 	13.8943997205
scalar MyScenario.node[85].veinsmobility 	totalDistance 	366.60777651162
scalar MyScenario.node[85].veinsmobility 	totalCO2Emission 	124.95467070901
scalar MyScenario.node[80].appl 	generatedWSMs 	0
scalar MyScenario.node[80].appl 	receivedWSMs 	0
scalar MyScenario.node[80].appl 	generatedBSMs 	0
scalar MyScenario.node[80].appl 	receivedBSMs 	0
scalar MyScenario.node[80].appl 	generatedWSAs 	0
scalar MyScenario.node[80].appl 	receivedWSAs 	0
scalar MyScenario.node[80].nic.phy80211p 	busyTime 	0.00020548571428571
scalar MyScenario.node[80].nic.mac1609_4 	ReceivedUnicastPackets 	0
scalar MyScenario.node[80].nic.mac1609_4 	ReceivedBroadcasts 	0
scalar MyScenario.node[80].nic.mac1609_4 	SentPackets 	0
scalar MyScenario.node[80].nic.mac1609_4 	SNIRLostPackets 	31
scalar MyScenario.node[80].nic.mac1609_4 	RXTXLostPackets 	0
scalar MyScenario.node[80].nic.mac1609_4 	TotalLostPackets 	31
scalar MyScenario.node[80].nic.mac1609_4 	DroppedPacketsInMac 	0
scalar MyScenario.node[80].nic.mac1609_4 	TooLittleTime 	0
scalar MyScenario.node[80].nic.mac1609_4 	TimesIntoBackoff 	0
scalar MyScenario.node[80].nic.mac1609_4 	SlotsBackoff 	0
scalar MyScenario.node[80].nic.mac1609_4 	NumInternalContention 	0
scalar MyScenario.node[80].nic.mac1609_4 	totalBusyTime 	0.001392
scalar MyScenario.node[80].veinsmobility 	startTime 	1
scalar MyScenario.node[80].veinsmobility 	totalTime 	34
scalar MyScenario.node[80].veinsmobility 	stopTime 	36
scalar MyScenario.node[80].veinsmobility 	minSpeed 	1.709468214307
scalar MyScenario.node[80].veinsmobility 	maxSpeed 	13.862562205363
scalar MyScenario.node[80].veinsmobility 	totalDistance 	392.13328361742
scalar MyScenario.node[80].veinsmobility 	totalCO2Emission 	108.75544288199
scalar MyScenario.node[150].appl 	generatedWSMs 	0
scalar MyScenario.node[150].appl 	receivedWSMs 	0
scalar MyScenario.node[150].appl 	generatedBSMs 	0
scalar MyScenario.node[150].appl 	receivedBSMs 	0
scalar MyScenario.node[150].appl 	generatedWSAs 	0
scalar MyScenario.node[150].appl 	receivedWSAs 	0
scalar MyScenario.node[150].nic.phy80211p 	busyTime 	0
scalar MyScenario.node[150].nic.mac1609_4 	ReceivedUnicastPackets 	0
scalar MyScenario.node[150].nic.mac1609_4 	ReceivedBroadcasts 	0
scalar MyScenario.node[150].nic.mac1609_4 	SentPackets 	0
scalar MyScenario.node[150].nic.mac1609_4 	SNIRLostPackets 	0
scalar MyScenario.node[150].nic.mac1609_4 	RXTXLostPackets 	0
scalar MyScenario.node[150].nic.mac1609_4 	TotalLostPackets 	0
scalar MyScenario.node[150].nic.mac1609_4 	DroppedPacketsInMac 	0
scalar MyScenario.node[150].nic.mac1609_4 	TooLittleTime 	0
scalar MyScenario.node[150].nic.mac1609_4 	TimesIntoBackoff 	0
scalar MyScenario.node[150].nic.mac1609_4 	SlotsBackoff 	0
scalar MyScenario.node[150].nic.mac1609_4 	NumInternalContention 	0
scalar MyScenario.node[150].nic.mac1609_4 	totalBusyTime 	0
scalar MyScenario.node[150].veinsmobility 	startTime 	4
scalar MyScenario.node[150].veinsmobility 	totalTime 	33
scalar MyScenario.node[150].veinsmobility 	stopTime 	38
scalar MyScenario.node[150].veinsmobility 	minSpeed 	1.6899864775361
scalar MyScenario.node[150].veinsmobility 	maxSpeed 	13.829388198326
scalar MyScenario.node[150].veinsmobility 	totalDistance 	363.11237892713
scalar MyScenario.node[150].veinsmobility 	totalCO2Emission 	105.68753934624
scalar MyScenario.node[154].appl 	generatedWSMs 	1
scalar MyScenario.node[154].appl 	receivedWSMs 	8
scalar MyScenario.node[154].appl 	generatedBSMs 	0
scalar MyScenario.node[154].appl 	receivedBSMs 	0
scalar MyScenario.node[154].appl 	generatedWSAs 	0
scalar MyScenario.node[154].appl 	receivedWSAs 	0
scalar MyScenario.node[154].nic.phy80211p 	busyTime 	0.00012594285714286
scalar MyScenario.node[154].nic.mac1609_4 	ReceivedUnicastPackets 	0
scalar MyScenario.node[154].nic.mac1609_4 	ReceivedBroadcasts 	8
scalar MyScenario.node[154].nic.mac1609_4 	SentPackets 	1
scalar MyScenario.node[154].nic.mac1609_4 	SNIRLostPackets 	11
scalar MyScenario.node[154].nic.mac1609_4 	RXTXLostPackets 	12
scalar MyScenario.node[154].nic.mac1609_4 	TotalLostPackets 	23
scalar MyScenario.node[154].nic.mac1609_4 	DroppedPacketsInMac 	0
scalar MyScenario.node[154].nic.mac1609_4 	TooLittleTime 	0
scalar MyScenario.node[154].nic.mac1609_4 	TimesIntoBackoff 	1
scalar MyScenario.node[154].nic.mac1609_4 	SlotsBackoff 	2
scalar MyScenario.node[154].nic.mac1609_4 	NumInternalContention 	0
scalar MyScenario.node[154].nic.mac1609_4 	totalBusyTime 	0.00255301785
scalar MyScenario.node[154].veinsmobility 	startTime 	4
scalar MyScenario.node[154].veinsmobility 	totalTime 	34
scalar MyScenario.node[154].veinsmobility 	stopTime 	39
scalar MyScenario.node[154].veinsmobility 	minSpeed 	0.021692383282248
scalar MyScenario.node[154].veinsmobility 	maxSpeed 	13.840681476938
scalar MyScenario.node[154].veinsmobility 	totalDistance 	275.28028179542
scalar MyScenario.node[154].veinsmobility 	totalCO2Emission 	121.31022639469
scalar MyScenario.node[13].appl 	generatedWSMs 	1
scalar MyScenario.node[13].appl 	receivedWSMs 	15
scalar MyScenario.node[13].appl 	generatedBSMs 	0
scalar MyScenario.node[13].appl 	receivedBSMs 	0
scalar MyScenario.node[13].appl 	generatedWSAs 	0
scalar MyScenario.node[13].appl 	receivedWSAs 	0
scalar MyScenario.node[13].nic.phy80211p 	busyTime 	0.00031747368421053
scalar MyScenario.node[13].nic.mac1609_4 	ReceivedUnicastPackets 	0
scalar MyScenario.node[13].nic.mac1609_4 	ReceivedBroadcasts 	15
scalar MyScenario.node[13].nic.mac1609_4 	SentPackets 	1
scalar MyScenario.node[13].nic.mac1609_4 	SNIRLostPackets 	37
scalar MyScenario.node[13].nic.mac1609_4 	RXTXLostPackets 	18
scalar MyScenario.node[13].nic.mac1609_4 	TotalLostPackets 	55
scalar MyScenario.node[13].nic.mac1609_4 	DroppedPacketsInMac 	0
scalar MyScenario.node[13].nic.mac1609_4 	TooLittleTime 	0
scalar MyScenario.node[13].nic.mac1609_4 	TimesIntoBackoff 	1
scalar MyScenario.node[13].nic.mac1609_4 	SlotsBackoff 	3
scalar MyScenario.node[13].nic.mac1609_4 	NumInternalContention 	0
scalar MyScenario.node[13].nic.mac1609_4 	totalBusyTime 	0.006033078118
scalar MyScenario.node[13].veinsmobility 	startTime 	1
scalar MyScenario.node[13].veinsmobility 	totalTime 	37
scalar MyScenario.node[13].veinsmobility 	stopTime 	39
scalar MyScenario.node[13].veinsmobility 	minSpeed 	2.0538653768832
scalar MyScenario.node[13].veinsmobility 	maxSpeed 	13.884075547056
scalar MyScenario.node[13].veinsmobility 	totalDistance 	380.18144610963
scalar MyScenario.node[13].veinsmobility 	totalCO2Emission 	131.93112511664
scalar MyScenario.node[44].appl 	generatedWSMs 	1
scalar MyScenario.node[44].appl 	receivedWSMs 	3
scalar MyScenario.node[44].appl 	generatedBSMs 	0
scalar MyScenario.node[44].appl 	receivedBSMs 	0
scalar MyScenario.node[44].appl 	generatedWSAs 	0
scalar MyScenario.node[44].appl 	receivedWSAs 	0
scalar MyScenario.node[44].nic.phy80211p 	busyTime 	0.0001682
scalar MyScenario.node[44].nic.mac1609_4 	ReceivedUnicastPackets 	0
scalar MyScenario.node[44].nic.mac1609_4 	ReceivedBroadcasts 	3
scalar MyScenario.node[44].nic.mac1609_4 	SentPackets 	1
scalar MyScenario.node[44].nic.mac1609_4 	SNIRLostPackets 	26
scalar MyScenario.node[44].nic.mac1609_4 	RXTXLostPackets 	4
scalar MyScenario.node[44].nic.mac1609_4 	TotalLostPackets 	30
scalar MyScenario.node[44].nic.mac1609_4 	DroppedPacketsInMac 	0
scalar MyScenario.node[44].nic.mac1609_4 	TooLittleTime 	0
scalar MyScenario.node[44].nic.mac1609_4 	TimesIntoBackoff 	1
scalar MyScenario.node[44].nic.mac1609_4 	SlotsBackoff 	0
scalar MyScenario.node[44].nic.mac1609_4 	NumInternalContention 	0
scalar MyScenario.node[44].nic.mac1609_4 	totalBusyTime 	0.00208900435
scalar MyScenario.node[44].veinsmobility 	startTime 	1
scalar MyScenario.node[44].veinsmobility 	totalTime 	39
scalar MyScenario.node[44].veinsmobility 	stopTime 	41
scalar MyScenario.node[44].veinsmobility 	minSpeed 	2.5850773849292
scalar MyScenario.node[44].veinsmobility 	maxSpeed 	13.799480979959
scalar MyScenario.node[44].veinsmobility 	totalDistance 	466.28586781288
scalar MyScenario.node[44].veinsmobility 	totalCO2Emission 	120.44803254656
scalar MyScenario.node[34].appl 	generatedWSMs 	1
scalar MyScenario.node[34].appl 	receivedWSMs 	7
scalar MyScenario.node[34].appl 	generatedBSMs 	0
scalar MyScenario.node[34].appl 	receivedBSMs 	0
scalar MyScenario.node[34].appl 	generatedWSAs 	0
scalar MyScenario.node[34].appl 	receivedWSAs 	0
scalar MyScenario.node[34].nic.phy80211p 	busyTime 	0.0002494
scalar MyScenario.node[34].nic.mac1609_4 	ReceivedUnicastPackets 	0
scalar MyScenario.node[34].nic.mac1609_4 	ReceivedBroadcasts 	7
scalar MyScenario.node[34].nic.mac1609_4 	SentPackets 	1
scalar MyScenario.node[34].nic.mac1609_4 	SNIRLostPackets 	36
scalar MyScenario.node[34].nic.mac1609_4 	RXTXLostPackets 	18
scalar MyScenario.node[34].nic.mac1609_4 	TotalLostPackets 	54
scalar MyScenario.node[34].nic.mac1609_4 	DroppedPacketsInMac 	0
scalar MyScenario.node[34].nic.mac1609_4 	TooLittleTime 	0
scalar MyScenario.node[34].nic.mac1609_4 	TimesIntoBackoff 	1
scalar MyScenario.node[34].nic.mac1609_4 	SlotsBackoff 	2
scalar MyScenario.node[34].nic.mac1609_4 	NumInternalContention 	0
scalar MyScenario.node[34].nic.mac1609_4 	totalBusyTime 	0.003481071671
scalar MyScenario.node[34].veinsmobility 	startTime 	1
scalar MyScenario.node[34].veinsmobility 	totalTime 	39
scalar MyScenario.node[34].veinsmobility 	stopTime 	41
scalar MyScenario.node[34].veinsmobility 	minSpeed 	1.7917104844702
scalar MyScenario.node[34].veinsmobility 	maxSpeed 	13.877702984191
scalar MyScenario.node[34].veinsmobility 	totalDistance 	479.09739309901
scalar MyScenario.node[34].veinsmobility 	totalCO2Emission 	108.09281072875
scalar MyScenario.node[63].appl 	generatedWSMs 	1
scalar MyScenario.node[63].appl 	receivedWSMs 	16
scalar MyScenario.node[63].appl 	generatedBSMs 	0
scalar MyScenario.node[63].appl 	receivedBSMs 	0
scalar MyScenario.node[63].appl 	generatedWSAs 	0
scalar MyScenario.node[63].appl 	receivedWSAs 	0
scalar MyScenario.node[63].nic.phy80211p 	busyTime 	0.0002262
scalar MyScenario.node[63].nic.mac1609_4 	ReceivedUnicastPackets 	0
scalar MyScenario.node[63].nic.mac1609_4 	ReceivedBroadcasts 	16
scalar MyScenario.node[63].nic.mac1609_4 	SentPackets 	1
scalar MyScenario.node[63].nic.mac1609_4 	SNIRLostPackets 	23
scalar MyScenario.node[63].nic.mac1609_4 	RXTXLostPackets 	13
scalar MyScenario.node[63].nic.mac1609_4 	TotalLostPackets 	36
scalar MyScenario.node[63].nic.mac1609_4 	DroppedPacketsInMac 	0
scalar MyScenario.node[63].nic.mac1609_4 	TooLittleTime 	0
scalar MyScenario.node[63].nic.mac1609_4 	TimesIntoBackoff 	1
scalar MyScenario.node[63].nic.mac1609_4 	SlotsBackoff 	1
scalar MyScenario.node[63].nic.mac1609_4 	NumInternalContention 	0
scalar MyScenario.node[63].nic.mac1609_4 	totalBusyTime 	0.005105102363
scalar MyScenario.node[63].veinsmobility 	startTime 	1
scalar MyScenario.node[63].veinsmobility 	totalTime 	39
scalar MyScenario.node[63].veinsmobility 	stopTime 	41
scalar MyScenario.node[63].veinsmobility 	minSpeed 	2.1366703624604
scalar MyScenario.node[63].veinsmobility 	maxSpeed 	13.849595344253
scalar MyScenario.node[63].veinsmobility 	totalDistance 	460.98688371516
scalar MyScenario.node[63].veinsmobility 	totalCO2Emission 	119.50471681035
scalar MyScenario.node[36].appl 	generatedWSMs 	1
scalar MyScenario.node[36].appl 	receivedWSMs 	10
scalar MyScenario.node[36].appl 	generatedBSMs 	0
scalar MyScenario.node[36].appl 	receivedBSMs 	0
scalar MyScenario.node[36].appl 	generatedWSAs 	0
scalar MyScenario.node[36].appl 	receivedWSAs 	0
scalar MyScenario.node[36].nic.phy80211p 	busyTime 	0.00018107317073171
scalar MyScenario.node[36].nic.mac1609_4 	ReceivedUnicastPackets 	0
scalar MyScenario.node[36].nic.mac1609_4 	ReceivedBroadcasts 	10
scalar MyScenario.node[36].nic.mac1609_4 	SentPackets 	1
scalar MyScenario.node[36].nic.mac1609_4 	SNIRLostPackets 	22
scalar MyScenario.node[36].nic.mac1609_4 	RXTXLostPackets 	13
scalar MyScenario.node[36].nic.mac1609_4 	TotalLostPackets 	35
scalar MyScenario.node[36].nic.mac1609_4 	DroppedPacketsInMac 	0
scalar MyScenario.node[36].nic.mac1609_4 	TooLittleTime 	0
scalar MyScenario.node[36].nic.mac1609_4 	TimesIntoBackoff 	1
scalar MyScenario.node[36].nic.mac1609_4 	SlotsBackoff 	3
scalar MyScenario.node[36].nic.mac1609_4 	NumInternalContention 	0
scalar MyScenario.node[36].nic.mac1609_4 	totalBusyTime 	0.003945062053
scalar MyScenario.node[36].veinsmobility 	startTime 	1
scalar MyScenario.node[36].veinsmobility 	totalTime 	40
scalar MyScenario.node[36].veinsmobility 	stopTime 	42
scalar MyScenario.node[36].veinsmobility 	minSpeed 	2.5866285854951
scalar MyScenario.node[36].veinsmobility 	maxSpeed 	13.889010324399
scalar MyScenario.node[36].veinsmobility 	totalDistance 	481.52398155421
scalar MyScenario.node[36].veinsmobility 	totalCO2Emission 	135.85509298923
scalar MyScenario.node[50].appl 	generatedWSMs 	1
scalar MyScenario.node[50].appl 	receivedWSMs 	10
scalar MyScenario.node[50].appl 	generatedBSMs 	0
scalar MyScenario.node[50].appl 	receivedBSMs 	0
scalar MyScenario.node[50].appl 	generatedWSAs 	0
scalar MyScenario.node[50].appl 	receivedWSAs 	0
scalar MyScenario.node[50].nic.phy80211p 	busyTime 	0.00017541463414634
scalar MyScenario.node[50].nic.mac1609_4 	ReceivedUnicastPackets 	0
scalar MyScenario.node[50].nic.mac1609_4 	ReceivedBroadcasts 	10
scalar MyScenario.node[50].nic.mac1609_4 	SentPackets 	1
scalar MyScenario.node[50].nic.mac1609_4 	SNIRLostPackets 	21
scalar MyScenario.node[50].nic.mac1609_4 	RXTXLostPackets 	3
scalar MyScenario.node[50].nic.mac1609_4 	TotalLostPackets 	24
scalar MyScenario.node[50].nic.mac1609_4 	DroppedPacketsInMac 	0
scalar MyScenario.node[50].nic.mac1609_4 	TooLittleTime 	0
scalar MyScenario.node[50].nic.mac1609_4 	TimesIntoBackoff 	1
scalar MyScenario.node[50].nic.mac1609_4 	SlotsBackoff 	3
scalar MyScenario.node[50].nic.mac1609_4 	NumInternalContention 	0
scalar MyScenario.node[50].nic.mac1609_4 	totalBusyTime 	0.003481031851
scalar MyScenario.node[50].veinsmobility 	startTime 	1
scalar MyScenario.node[50].veinsmobility 	totalTime 	40
scalar MyScenario.node[50].veinsmobility 	stopTime 	42
scalar MyScenario.node[50].veinsmobility 	minSpeed 	1.9148932792945
scalar MyScenario.node[50].veinsmobility 	maxSpeed 	13.808304745844
scalar MyScenario.node[50].veinsmobility 	totalDistance 	471.20772365407
scalar MyScenario.node[50].veinsmobility 	totalCO2Emission 	119.13366298772
scalar MyScenario.node[109].appl 	generatedWSMs 	0
scalar MyScenario.node[109].appl 	receivedWSMs 	0
scalar MyScenario.node[109].appl 	generatedBSMs 	0
scalar MyScenario.node[109].appl 	receivedBSMs 	0
scalar MyScenario.node[109].appl 	generatedWSAs 	0
scalar MyScenario.node[109].appl 	receivedWSAs 	0
scalar MyScenario.node[109].nic.phy80211p 	busyTime 	0
scalar MyScenario.node[109].nic.mac1609_4 	ReceivedUnicastPackets 	0
scalar MyScenario.node[109].nic.mac1609_4 	ReceivedBroadcasts 	0
scalar MyScenario.node[109].nic.mac1609_4 	SentPackets 	0
scalar MyScenario.node[109].nic.mac1609_4 	SNIRLostPackets 	0
scalar MyScenario.node[109].nic.mac1609_4 	RXTXLostPackets 	0
scalar MyScenario.node[109].nic.mac1609_4 	TotalLostPackets 	0
scalar MyScenario.node[109].nic.mac1609_4 	DroppedPacketsInMac 	0
scalar MyScenario.node[109].nic.mac1609_4 	TooLittleTime 	0
scalar MyScenario.node[109].nic.mac1609_4 	TimesIntoBackoff 	0
scalar MyScenario.node[109].nic.mac1609_4 	SlotsBackoff 	0
scalar MyScenario.node[109].nic.mac1609_4 	NumInternalContention 	0
scalar MyScenario.node[109].nic.mac1609_4 	totalBusyTime 	0
scalar MyScenario.node[109].veinsmobility 	startTime 	1
scalar MyScenario.node[109].veinsmobility 	totalTime 	40
scalar MyScenario.node[109].veinsmobility 	stopTime 	42
scalar MyScenario.node[109].veinsmobility 	minSpeed 	1.4070068893954
scalar MyScenario.node[109].veinsmobility 	maxSpeed 	13.848732219101
scalar MyScenario.node[109].veinsmobility 	totalDistance 	471.03565058627
scalar MyScenario.node[109].veinsmobility 	totalCO2Emission 	120.04182628984
scalar MyScenario.node[126].appl 	generatedWSMs 	1
scalar MyScenario.node[126].appl 	receivedWSMs 	5
scalar MyScenario.node[126].appl 	generatedBSMs 	0
scalar MyScenario.node[126].appl 	receivedBSMs 	0
scalar MyScenario.node[126].appl 	generatedWSAs 	0
scalar MyScenario.node[126].appl 	receivedWSAs 	0
scalar MyScenario.node[126].nic.phy80211p 	busyTime 	0.000116
scalar MyScenario.node[126].nic.mac1609_4 	ReceivedUnicastPackets 	0
scalar MyScenario.node[126].nic.mac1609_4 	ReceivedBroadcasts 	5
scalar MyScenario.node[126].nic.mac1609_4 	SentPackets 	1
scalar MyScenario.node[126].nic.mac1609_4 	SNIRLostPackets 	16
scalar MyScenario.node[126].nic.mac1609_4 	RXTXLostPackets 	12
scalar MyScenario.node[126].nic.mac1609_4 	TotalLostPackets 	28
scalar MyScenario.node[126].nic.mac1609_4 	DroppedPacketsInMac 	0
scalar MyScenario.node[126].nic.mac1609_4 	TooLittleTime 	0
scalar MyScenario.node[126].nic.mac1609_4 	TimesIntoBackoff 	1
scalar MyScenario.node[126].nic.mac1609_4 	SlotsBackoff 	2
scalar MyScenario.node[126].nic.mac1609_4 	NumInternalContention 	0
scalar MyScenario.node[126].nic.mac1609_4 	totalBusyTime 	0.002553059761
scalar MyScenario.node[126].veinsmobility 	startTime 	1
scalar MyScenario.node[126].veinsmobility 	totalTime 	41
scalar MyScenario.node[126].veinsmobility 	stopTime 	43
scalar MyScenario.node[126].veinsmobility 	minSpeed 	1.6791111625498
scalar MyScenario.node[126].veinsmobility 	maxSpeed 	13.774743238091
scalar MyScenario.node[126].veinsmobility 	totalDistance 	477.70029026643
scalar MyScenario.node[126].veinsmobility 	totalCO2Emission 	123.35289274355
scalar MyScenario.node[1].appl 	generatedWSMs 	1
scalar MyScenario.node[1].appl 	receivedWSMs 	1
scalar MyScenario.node[1].appl 	generatedBSMs 	0
scalar MyScenario.node[1].appl 	receivedBSMs 	0
scalar MyScenario.node[1].appl 	generatedWSAs 	0
scalar MyScenario.node[1].appl 	receivedWSAs 	0
scalar MyScenario.node[1].nic.phy80211p 	busyTime 	0.00012409302325581
scalar MyScenario.node[1].nic.mac1609_4 	ReceivedUnicastPackets 	0
scalar MyScenario.node[1].nic.mac1609_4 	ReceivedBroadcasts 	1
scalar MyScenario.node[1].nic.mac1609_4 	SentPackets 	1
scalar MyScenario.node[1].nic.mac1609_4 	SNIRLostPackets 	22
scalar MyScenario.node[1].nic.mac1609_4 	RXTXLostPackets 	12
scalar MyScenario.node[1].nic.mac1609_4 	TotalLostPackets 	34
scalar MyScenario.node[1].nic.mac1609_4 	DroppedPacketsInMac 	0
scalar MyScenario.node[1].nic.mac1609_4 	TooLittleTime 	0
scalar MyScenario.node[1].nic.mac1609_4 	TimesIntoBackoff 	1
scalar MyScenario.node[1].nic.mac1609_4 	SlotsBackoff 	0
scalar MyScenario.node[1].nic.mac1609_4 	NumInternalContention 	0
scalar MyScenario.node[1].nic.mac1609_4 	totalBusyTime 	0.001857122732
scalar MyScenario.node[1].veinsmobility 	startTime 	1
scalar MyScenario.node[1].veinsmobility 	totalTime 	42
scalar MyScenario.node[1].veinsmobility 	stopTime 	44
scalar MyScenario.node[1].veinsmobility 	minSpeed 	0.04494348963512
scalar MyScenario.node[1].veinsmobility 	maxSpeed 	13.77423778486
scalar MyScenario.node[1].veinsmobility 	totalDistance 	373.35481516228
scalar MyScenario.node[1].veinsmobility 	totalCO2Emission 	140.28232744922
scalar MyScenario.node[7].appl 	generatedWSMs 	0
scalar MyScenario.node[7].appl 	receivedWSMs 	0
scalar MyScenario.node[7].appl 	generatedBSMs 	0
scalar MyScenario.node[7].appl 	receivedBSMs 	0
scalar MyScenario.node[7].appl 	generatedWSAs 	0
scalar MyScenario.node[7].appl 	receivedWSAs 	0
scalar MyScenario.node[7].nic.phy80211p 	busyTime 	5.9348837209302e-05
scalar MyScenario.node[7].nic.mac1609_4 	ReceivedUnicastPackets 	0
scalar MyScenario.node[7].nic.mac1609_4 	ReceivedBroadcasts 	0
scalar MyScenario.node[7].nic.mac1609_4 	SentPackets 	0
scalar MyScenario.node[7].nic.mac1609_4 	SNIRLostPackets 	11
scalar MyScenario.node[7].nic.mac1609_4 	RXTXLostPackets 	0
scalar MyScenario.node[7].nic.mac1609_4 	TotalLostPackets 	11
scalar MyScenario.node[7].nic.mac1609_4 	DroppedPacketsInMac 	0
scalar MyScenario.node[7].nic.mac1609_4 	TooLittleTime 	0
scalar MyScenario.node[7].nic.mac1609_4 	TimesIntoBackoff 	0
scalar MyScenario.node[7].nic.mac1609_4 	SlotsBackoff 	0
scalar MyScenario.node[7].nic.mac1609_4 	NumInternalContention 	0
scalar MyScenario.node[7].nic.mac1609_4 	totalBusyTime 	0.000232065996
scalar MyScenario.node[7].veinsmobility 	startTime 	1
scalar MyScenario.node[7].veinsmobility 	totalTime 	42
scalar MyScenario.node[7].veinsmobility 	stopTime 	44
scalar MyScenario.node[7].veinsmobility 	minSpeed 	1.6605673349462
scalar MyScenario.node[7].veinsmobility 	maxSpeed 	13.878240935551
scalar MyScenario.node[7].veinsmobility 	totalDistance 	474.98885455593
scalar MyScenario.node[7].veinsmobility 	totalCO2Emission 	140.63418232545
scalar MyScenario.node[157].appl 	generatedWSMs 	1
scalar MyScenario.node[157].appl 	receivedWSMs 	4
scalar MyScenario.node[157].appl 	generatedBSMs 	0
scalar MyScenario.node[157].appl 	receivedBSMs 	0
scalar MyScenario.node[157].appl 	generatedWSAs 	0
scalar MyScenario.node[157].appl 	receivedWSAs 	0
scalar MyScenario.node[157].nic.phy80211p 	busyTime 	9.619512195122e-05
scalar MyScenario.node[157].nic.mac1609_4 	ReceivedUnicastPackets 	0
scalar MyScenario.node[157].nic.mac1609_4 	ReceivedBroadcasts 	4
scalar MyScenario.node[157].nic.mac1609_4 	SentPackets 	1
scalar MyScenario.node[157].nic.mac1609_4 	SNIRLostPackets 	13
scalar MyScenario.node[157].nic.mac1609_4 	RXTXLostPackets 	11
scalar MyScenario.node[157].nic.mac1609_4 	TotalLostPackets 	24
scalar MyScenario.node[157].nic.mac1609_4 	DroppedPacketsInMac 	0
scalar MyScenario.node[157].nic.mac1609_4 	TooLittleTime 	0
scalar MyScenario.node[157].nic.mac1609_4 	TimesIntoBackoff 	1
scalar MyScenario.node[157].nic.mac1609_4 	SlotsBackoff 	1
scalar MyScenario.node[157].nic.mac1609_4 	NumInternalContention 	0
scalar MyScenario.node[157].nic.mac1609_4 	totalBusyTime 	0.00255320069
scalar MyScenario.node[157].veinsmobility 	startTime 	4
scalar MyScenario.node[157].veinsmobility 	totalTime 	40
scalar MyScenario.node[157].veinsmobility 	stopTime 	45
scalar MyScenario.node[157].veinsmobility 	minSpeed 	2.2813487492269
scalar MyScenario.node[157].veinsmobility 	maxSpeed 	13.899960677954
scalar MyScenario.node[157].veinsmobility 	totalDistance 	472.59312440197
scalar MyScenario.node[157].veinsmobility 	totalCO2Emission 	120.74596418911
scalar MyScenario.node[14].appl 	generatedWSMs 	0
scalar MyScenario.node[14].appl 	receivedWSMs 	0
scalar MyScenario.node[14].appl 	generatedBSMs 	0
scalar MyScenario.node[14].appl 	receivedBSMs 	0
scalar MyScenario.node[14].appl 	generatedWSAs 	0
scalar MyScenario.node[14].appl 	receivedWSAs 	0
scalar MyScenario.node[14].nic.phy80211p 	busyTime 	5.8e-05
scalar MyScenario.node[14].nic.mac1609_4 	ReceivedUnicastPackets 	0
scalar MyScenario.node[14].nic.mac1609_4 	ReceivedBroadcasts 	0
scalar MyScenario.node[14].nic.mac1609_4 	SentPackets 	0
scalar MyScenario.node[14].nic.mac1609_4 	SNIRLostPackets 	11
scalar MyScenario.node[14].nic.mac1609_4 	RXTXLostPackets 	0
scalar MyScenario.node[14].nic.mac1609_4 	TotalLostPackets 	11
scalar MyScenario.node[14].nic.mac1609_4 	DroppedPacketsInMac 	0
scalar MyScenario.node[14].nic.mac1609_4 	TooLittleTime 	0
scalar MyScenario.node[14].nic.mac1609_4 	TimesIntoBackoff 	0
scalar MyScenario.node[14].nic.mac1609_4 	SlotsBackoff 	0
scalar MyScenario.node[14].nic.mac1609_4 	NumInternalContention 	0
scalar MyScenario.node[14].nic.mac1609_4 	totalBusyTime 	0.000928
scalar MyScenario.node[14].veinsmobility 	startTime 	1
scalar MyScenario.node[14].veinsmobility 	totalTime 	43
scalar MyScenario.node[14].veinsmobility 	stopTime 	45
scalar MyScenario.node[14].veinsmobility 	minSpeed 	1.6757115815766
scalar MyScenario.node[14].veinsmobility 	maxSpeed 	13.787581939413
scalar MyScenario.node[14].veinsmobility 	totalDistance 	478.06522690744
scalar MyScenario.node[14].veinsmobility 	totalCO2Emission 	127.34882827441
scalar MyScenario.node[17].appl 	generatedWSMs 	1
scalar MyScenario.node[17].appl 	receivedWSMs 	2
scalar MyScenario.node[17].appl 	generatedBSMs 	0
scalar MyScenario.node[17].appl 	receivedBSMs 	0
scalar MyScenario.node[17].appl 	generatedWSAs 	0
scalar MyScenario.node[17].appl 	receivedWSAs 	0
scalar MyScenario.node[17].nic.phy80211p 	busyTime 	0.00010545454545455
scalar MyScenario.node[17].nic.mac1609_4 	ReceivedUnicastPackets 	0
scalar MyScenario.node[17].nic.mac1609_4 	ReceivedBroadcasts 	2
scalar MyScenario.node[17].nic.mac1609_4 	SentPackets 	1
scalar MyScenario.node[17].nic.mac1609_4 	SNIRLostPackets 	18
scalar MyScenario.node[17].nic.mac1609_4 	RXTXLostPackets 	5
scalar MyScenario.node[17].nic.mac1609_4 	TotalLostPackets 	23
scalar MyScenario.node[17].nic.mac1609_4 	DroppedPacketsInMac 	0
scalar MyScenario.node[17].nic.mac1609_4 	TooLittleTime 	0
scalar MyScenario.node[17].nic.mac1609_4 	TimesIntoBackoff 	1
scalar MyScenario.node[17].nic.mac1609_4 	SlotsBackoff 	0
scalar MyScenario.node[17].nic.mac1609_4 	NumInternalContention 	0
scalar MyScenario.node[17].nic.mac1609_4 	totalBusyTime 	0.001161
scalar MyScenario.node[17].veinsmobility 	startTime 	1
scalar MyScenario.node[17].veinsmobility 	totalTime 	43
scalar MyScenario.node[17].veinsmobility 	stopTime 	45
scalar MyScenario.node[17].veinsmobility 	minSpeed 	1.5730219522923
scalar MyScenario.node[17].veinsmobility 	maxSpeed 	13.821550501301
scalar MyScenario.node[17].veinsmobility 	totalDistance 	463.63728875763
scalar MyScenario.node[17].veinsmobility 	totalCO2Emission 	126.43801368177
scalar MyScenario.node[46].appl 	generatedWSMs 	1
scalar MyScenario.node[46].appl 	receivedWSMs 	16
scalar MyScenario.node[46].appl 	generatedBSMs 	0
scalar MyScenario.node[46].appl 	receivedBSMs 	0
scalar MyScenario.node[46].appl 	generatedWSAs 	0
scalar MyScenario.node[46].appl 	receivedWSAs 	0
scalar MyScenario.node[46].nic.phy80211p 	busyTime 	0.00020106666666667
scalar MyScenario.node[46].nic.mac1609_4 	ReceivedUnicastPackets 	0
scalar MyScenario.node[46].nic.mac1609_4 	ReceivedBroadcasts 	16
scalar MyScenario.node[46].nic.mac1609_4 	SentPackets 	1
scalar MyScenario.node[46].nic.mac1609_4 	SNIRLostPackets 	23
scalar MyScenario.node[46].nic.mac1609_4 	RXTXLostPackets 	8
scalar MyScenario.node[46].nic.mac1609_4 	TotalLostPackets 	31
scalar MyScenario.node[46].nic.mac1609_4 	DroppedPacketsInMac 	0
scalar MyScenario.node[46].nic.mac1609_4 	TooLittleTime 	0
scalar MyScenario.node[46].nic.mac1609_4 	TimesIntoBackoff 	1
scalar MyScenario.node[46].nic.mac1609_4 	SlotsBackoff 	2
scalar MyScenario.node[46].nic.mac1609_4 	NumInternalContention 	0
scalar MyScenario.node[46].nic.mac1609_4 	totalBusyTime 	0.006265021088
scalar MyScenario.node[46].veinsmobility 	startTime 	1
scalar MyScenario.node[46].veinsmobility 	totalTime 	44
scalar MyScenario.node[46].veinsmobility 	stopTime 	46
scalar MyScenario.node[46].veinsmobility 	minSpeed 	1.3008899671026
scalar MyScenario.node[46].veinsmobility 	maxSpeed 	13.885314622964
scalar MyScenario.node[46].veinsmobility 	totalDistance 	478.5031375868
scalar MyScenario.node[46].veinsmobility 	totalCO2Emission 	119.64836874132
scalar MyScenario.node[158].appl 	generatedWSMs 	1
scalar MyScenario.node[158].appl 	receivedWSMs 	8
scalar MyScenario.node[158].appl 	generatedBSMs 	0
scalar MyScenario.node[158].appl 	receivedBSMs 	0
scalar MyScenario.node[158].appl 	generatedWSAs 	0
scalar MyScenario.node[158].appl 	receivedWSAs 	0
scalar MyScenario.node[158].nic.phy80211p 	busyTime 	0.00015466666666667
scalar MyScenario.node[158].nic.mac1609_4 	ReceivedUnicastPackets 	0
scalar MyScenario.node[158].nic.mac1609_4 	ReceivedBroadcasts 	8
scalar MyScenario.node[158].nic.mac1609_4 	SentPackets 	1
scalar MyScenario.node[158].nic.mac1609_4 	SNIRLostPackets 	20
scalar MyScenario.node[158].nic.mac1609_4 	RXTXLostPackets 	4
scalar MyScenario.node[158].nic.mac1609_4 	TotalLostPackets 	24
scalar MyScenario.node[158].nic.mac1609_4 	DroppedPacketsInMac 	0
scalar MyScenario.node[158].nic.mac1609_4 	TooLittleTime 	0
scalar MyScenario.node[158].nic.mac1609_4 	TimesIntoBackoff 	1
scalar MyScenario.node[158].nic.mac1609_4 	SlotsBackoff 	0
scalar MyScenario.node[158].nic.mac1609_4 	NumInternalContention 	0
scalar MyScenario.node[158].nic.mac1609_4 	totalBusyTime 	0.003481
scalar MyScenario.node[158].veinsmobility 	startTime 	4
scalar MyScenario.node[158].veinsmobility 	totalTime 	41
scalar MyScenario.node[158].veinsmobility 	stopTime 	46
scalar MyScenario.node[158].veinsmobility 	minSpeed 	2.2867958772695
scalar MyScenario.node[158].veinsmobility 	maxSpeed 	13.791489762207
scalar MyScenario.node[158].veinsmobility 	totalDistance 	456.92770186391
scalar MyScenario.node[158].veinsmobility 	totalCO2Emission 	136.81593465391
scalar MyScenario.node[142].appl 	generatedWSMs 	1
scalar MyScenario.node[142].appl 	receivedWSMs 	19
scalar MyScenario.node[142].appl 	generatedBSMs 	0
scalar MyScenario.node[142].appl 	receivedBSMs 	0
scalar MyScenario.node[142].appl 	generatedWSAs 	0
scalar MyScenario.node[142].appl 	receivedWSAs 	0
scalar MyScenario.node[142].nic.phy80211p 	busyTime 	0.00016571428571429
scalar MyScenario.node[142].nic.mac1609_4 	ReceivedUnicastPackets 	0
scalar MyScenario.node[142].nic.mac1609_4 	ReceivedBroadcasts 	19
scalar MyScenario.node[142].nic.mac1609_4 	SentPackets 	1
scalar MyScenario.node[142].nic.mac1609_4 	SNIRLostPackets 	11
scalar MyScenario.node[142].nic.mac1609_4 	RXTXLostPackets 	5
scalar MyScenario.node[142].nic.mac1609_4 	TotalLostPackets 	16
scalar MyScenario.node[142].nic.mac1609_4 	DroppedPacketsInMac 	0
scalar MyScenario.node[142].nic.mac1609_4 	TooLittleTime 	0
scalar MyScenario.node[142].nic.mac1609_4 	TimesIntoBackoff 	1
scalar MyScenario.node[142].nic.mac1609_4 	SlotsBackoff 	1
scalar MyScenario.node[142].nic.mac1609_4 	NumInternalContention 	0
scalar MyScenario.node[142].nic.mac1609_4 	totalBusyTime 	0.005337
scalar MyScenario.node[142].veinsmobility 	startTime 	4
scalar MyScenario.node[142].veinsmobility 	totalTime 	41
scalar MyScenario.node[142].veinsmobility 	stopTime 	46
scalar MyScenario.node[142].veinsmobility 	minSpeed 	2.4065377853112
scalar MyScenario.node[142].veinsmobility 	maxSpeed 	13.852576068998
scalar MyScenario.node[142].veinsmobility 	totalDistance 	478.49844022446
scalar MyScenario.node[142].veinsmobility 	totalCO2Emission 	127.2507697631
scalar MyScenario.node[19].appl 	generatedWSMs 	1
scalar MyScenario.node[19].appl 	receivedWSMs 	2
scalar MyScenario.node[19].appl 	generatedBSMs 	0
scalar MyScenario.node[19].appl 	receivedBSMs 	0
scalar MyScenario.node[19].appl 	generatedWSAs 	0
scalar MyScenario.node[19].appl 	receivedWSAs 	0
scalar MyScenario.node[19].nic.phy80211p 	busyTime 	0.00010311111111111
scalar MyScenario.node[19].nic.mac1609_4 	ReceivedUnicastPackets 	0
scalar MyScenario.node[19].nic.mac1609_4 	ReceivedBroadcasts 	2
scalar MyScenario.node[19].nic.mac1609_4 	SentPackets 	1
scalar MyScenario.node[19].nic.mac1609_4 	SNIRLostPackets 	18
scalar MyScenario.node[19].nic.mac1609_4 	RXTXLostPackets 	0
scalar MyScenario.node[19].nic.mac1609_4 	TotalLostPackets 	18
scalar MyScenario.node[19].nic.mac1609_4 	DroppedPacketsInMac 	0
scalar MyScenario.node[19].nic.mac1609_4 	TooLittleTime 	0
scalar MyScenario.node[19].nic.mac1609_4 	TimesIntoBackoff 	1
scalar MyScenario.node[19].nic.mac1609_4 	SlotsBackoff 	2
scalar MyScenario.node[19].nic.mac1609_4 	NumInternalContention 	0
scalar MyScenario.node[19].nic.mac1609_4 	totalBusyTime 	0.002089
scalar MyScenario.node[19].veinsmobility 	startTime 	1
scalar MyScenario.node[19].veinsmobility 	totalTime 	44
scalar MyScenario.node[19].veinsmobility 	stopTime 	46
scalar MyScenario.node[19].veinsmobility 	minSpeed 	1.3300914066145
scalar MyScenario.node[19].veinsmobility 	maxSpeed 	13.753840390127
scalar MyScenario.node[19].veinsmobility 	totalDistance 	463.21981342808
scalar MyScenario.node[19].veinsmobility 	totalCO2Emission 	156.5395246581
scalar MyScenario.node[16].appl 	generatedWSMs 	1
scalar MyScenario.node[16].appl 	receivedWSMs 	7
scalar MyScenario.node[16].appl 	generatedBSMs 	0
scalar MyScenario.node[16].appl 	receivedBSMs 	0
scalar MyScenario.node[16].appl 	generatedWSAs 	0
scalar MyScenario.node[16].appl 	receivedWSAs 	0
scalar MyScenario.node[16].nic.phy80211p 	busyTime 	9.5826086956522e-05
scalar MyScenario.node[16].nic.mac1609_4 	ReceivedUnicastPackets 	0
scalar MyScenario.node[16].nic.mac1609_4 	ReceivedBroadcasts 	7
scalar MyScenario.node[16].nic.mac1609_4 	SentPackets 	1
scalar MyScenario.node[16].nic.mac1609_4 	SNIRLostPackets 	12
scalar MyScenario.node[16].nic.mac1609_4 	RXTXLostPackets 	4
scalar MyScenario.node[16].nic.mac1609_4 	TotalLostPackets 	16
scalar MyScenario.node[16].nic.mac1609_4 	DroppedPacketsInMac 	0
scalar MyScenario.node[16].nic.mac1609_4 	TooLittleTime 	0
scalar MyScenario.node[16].nic.mac1609_4 	TimesIntoBackoff 	1
scalar MyScenario.node[16].nic.mac1609_4 	SlotsBackoff 	1
scalar MyScenario.node[16].nic.mac1609_4 	NumInternalContention 	0
scalar MyScenario.node[16].nic.mac1609_4 	totalBusyTime 	0.002785
scalar MyScenario.node[16].veinsmobility 	startTime 	1
scalar MyScenario.node[16].veinsmobility 	totalTime 	45
scalar MyScenario.node[16].veinsmobility 	stopTime 	47
scalar MyScenario.node[16].veinsmobility 	minSpeed 	2.4469966095407
scalar MyScenario.node[16].veinsmobility 	maxSpeed 	13.877065287111
scalar MyScenario.node[16].veinsmobility 	totalDistance 	478.67262438309
scalar MyScenario.node[16].veinsmobility 	totalCO2Emission 	164.6631585853
scalar MyScenario.node[163].appl 	generatedWSMs 	1
scalar MyScenario.node[163].appl 	receivedWSMs 	2
scalar MyScenario.node[163].appl 	generatedBSMs 	0
scalar MyScenario.node[163].appl 	receivedBSMs 	0
scalar MyScenario.node[163].appl 	generatedWSAs 	0
scalar MyScenario.node[163].appl 	receivedWSAs 	0
scalar MyScenario.node[163].nic.phy80211p 	busyTime 	7.9090909090909e-05
scalar MyScenario.node[163].nic.mac1609_4 	ReceivedUnicastPackets 	0
scalar MyScenario.node[163].nic.mac1609_4 	ReceivedBroadcasts 	2
scalar MyScenario.node[163].nic.mac1609_4 	SentPackets 	1
scalar MyScenario.node[163].nic.mac1609_4 	SNIRLostPackets 	13
scalar MyScenario.node[163].nic.mac1609_4 	RXTXLostPackets 	11
scalar MyScenario.node[163].nic.mac1609_4 	TotalLostPackets 	24
scalar MyScenario.node[163].nic.mac1609_4 	DroppedPacketsInMac 	0
scalar MyScenario.node[163].nic.mac1609_4 	TooLittleTime 	0
scalar MyScenario.node[163].nic.mac1609_4 	TimesIntoBackoff 	1
scalar MyScenario.node[163].nic.mac1609_4 	SlotsBackoff 	3
scalar MyScenario.node[163].nic.mac1609_4 	NumInternalContention 	0
scalar MyScenario.node[163].nic.mac1609_4 	totalBusyTime 	0.001857084521
scalar MyScenario.node[163].veinsmobility 	startTime 	4
scalar MyScenario.node[163].veinsmobility 	totalTime 	43
scalar MyScenario.node[163].veinsmobility 	stopTime 	48
scalar MyScenario.node[163].veinsmobility 	minSpeed 	1.2501451996704
scalar MyScenario.node[163].veinsmobility 	maxSpeed 	13.804160978063
scalar MyScenario.node[163].veinsmobility 	totalDistance 	468.50834470831
scalar MyScenario.node[163].veinsmobility 	totalCO2Emission 	141.64799376512
scalar MyScenario.node[48].appl 	generatedWSMs 	1
scalar MyScenario.node[48].appl 	receivedWSMs 	5
scalar MyScenario.node[48].appl 	generatedBSMs 	0
scalar MyScenario.node[48].appl 	receivedBSMs 	0
scalar MyScenario.node[48].appl 	generatedWSAs 	0
scalar MyScenario.node[48].appl 	receivedWSAs 	0
scalar MyScenario.node[48].nic.phy80211p 	busyTime 	0.00011846808510638
scalar MyScenario.node[48].nic.mac1609_4 	ReceivedUnicastPackets 	0
scalar MyScenario.node[48].nic.mac1609_4 	ReceivedBroadcasts 	5
scalar MyScenario.node[48].nic.mac1609_4 	SentPackets 	1
scalar MyScenario.node[48].nic.mac1609_4 	SNIRLostPackets 	19
scalar MyScenario.node[48].nic.mac1609_4 	RXTXLostPackets 	7
scalar MyScenario.node[48].nic.mac1609_4 	TotalLostPackets 	26
scalar MyScenario.node[48].nic.mac1609_4 	DroppedPacketsInMac 	0
scalar MyScenario.node[48].nic.mac1609_4 	TooLittleTime 	0
scalar MyScenario.node[48].nic.mac1609_4 	TimesIntoBackoff 	1
scalar MyScenario.node[48].nic.mac1609_4 	SlotsBackoff 	1
scalar MyScenario.node[48].nic.mac1609_4 	NumInternalContention 	0
scalar MyScenario.node[48].nic.mac1609_4 	totalBusyTime 	0.002553041306
scalar MyScenario.node[48].veinsmobility 	startTime 	1
scalar MyScenario.node[48].veinsmobility 	totalTime 	46
scalar MyScenario.node[48].veinsmobility 	stopTime 	48
scalar MyScenario.node[48].veinsmobility 	minSpeed 	1.3458746782775
scalar MyScenario.node[48].veinsmobility 	maxSpeed 	13.843429845874
scalar MyScenario.node[48].veinsmobility 	totalDistance 	468.02717237608
scalar MyScenario.node[48].veinsmobility 	totalCO2Emission 	160.14646194844
scalar MyScenario.node[143].appl 	generatedWSMs 	1
scalar MyScenario.node[143].appl 	receivedWSMs 	7
scalar MyScenario.node[143].appl 	generatedBSMs 	0
scalar MyScenario.node[143].appl 	receivedBSMs 	0
scalar MyScenario.node[143].appl 	generatedWSAs 	0
scalar MyScenario.node[143].appl 	receivedWSAs 	0
scalar MyScenario.node[143].nic.phy80211p 	busyTime 	0.0001392
scalar MyScenario.node[143].nic.mac1609_4 	ReceivedUnicastPackets 	0
scalar MyScenario.node[143].nic.mac1609_4 	ReceivedBroadcasts 	7
scalar MyScenario.node[143].nic.mac1609_4 	SentPackets 	1
scalar MyScenario.node[143].nic.mac1609_4 	SNIRLostPackets 	20
scalar MyScenario.node[143].nic.mac1609_4 	RXTXLostPackets 	4
scalar MyScenario.node[143].nic.mac1609_4 	TotalLostPackets 	24
scalar MyScenario.node[143].nic.mac1609_4 	DroppedPacketsInMac 	0
scalar MyScenario.node[143].nic.mac1609_4 	TooLittleTime 	0
scalar MyScenario.node[143].nic.mac1609_4 	TimesIntoBackoff 	1
scalar MyScenario.node[143].nic.mac1609_4 	SlotsBackoff 	2
scalar MyScenario.node[143].nic.mac1609_4 	NumInternalContention 	0
scalar MyScenario.node[143].nic.mac1609_4 	totalBusyTime 	0.003017
scalar MyScenario.node[143].veinsmobility 	startTime 	4
scalar MyScenario.node[143].veinsmobility 	totalTime 	44
scalar MyScenario.node[143].veinsmobility 	stopTime 	49
scalar MyScenario.node[143].veinsmobility 	minSpeed 	2.1844563899562
scalar MyScenario.node[143].veinsmobility 	maxSpeed 	13.854653100111
scalar MyScenario.node[143].veinsmobility 	totalDistance 	466.42712327323
scalar MyScenario.node[143].veinsmobility 	totalCO2Emission 	175.55995290605
scalar MyScenario.node[172].appl 	generatedWSMs 	0
scalar MyScenario.node[172].appl 	receivedWSMs 	0
scalar MyScenario.node[172].appl 	generatedBSMs 	0
scalar MyScenario.node[172].appl 	receivedBSMs 	0
scalar MyScenario.node[172].appl 	generatedWSAs 	0
scalar MyScenario.node[172].appl 	receivedWSAs 	0
scalar MyScenario.node[172].nic.phy80211p 	busyTime 	0.00012104347826087
scalar MyScenario.node[172].nic.mac1609_4 	ReceivedUnicastPackets 	0
scalar MyScenario.node[172].nic.mac1609_4 	ReceivedBroadcasts 	0
scalar MyScenario.node[172].nic.mac1609_4 	SentPackets 	0
scalar MyScenario.node[172].nic.mac1609_4 	SNIRLostPackets 	24
scalar MyScenario.node[172].nic.mac1609_4 	RXTXLostPackets 	0
scalar MyScenario.node[172].nic.mac1609_4 	TotalLostPackets 	24
scalar MyScenario.node[172].nic.mac1609_4 	DroppedPacketsInMac 	0
scalar MyScenario.node[172].nic.mac1609_4 	TooLittleTime 	0
scalar MyScenario.node[172].nic.mac1609_4 	TimesIntoBackoff 	0
scalar MyScenario.node[172].nic.mac1609_4 	SlotsBackoff 	0
scalar MyScenario.node[172].nic.mac1609_4 	NumInternalContention 	0
scalar MyScenario.node[172].nic.mac1609_4 	totalBusyTime 	0.000928
scalar MyScenario.node[172].veinsmobility 	startTime 	4
scalar MyScenario.node[172].veinsmobility 	totalTime 	45
scalar MyScenario.node[172].veinsmobility 	stopTime 	50
scalar MyScenario.node[172].veinsmobility 	minSpeed 	7.6194316604208e-06
scalar MyScenario.node[172].veinsmobility 	maxSpeed 	13.855737258424
scalar MyScenario.node[172].veinsmobility 	totalDistance 	381.61345673696
scalar MyScenario.node[172].veinsmobility 	totalCO2Emission 	123.36500040998
scalar MyScenario.node[102].appl 	generatedWSMs 	1
scalar MyScenario.node[102].appl 	receivedWSMs 	5
scalar MyScenario.node[102].appl 	generatedBSMs 	0
scalar MyScenario.node[102].appl 	receivedBSMs 	0
scalar MyScenario.node[102].appl 	generatedWSAs 	0
scalar MyScenario.node[102].appl 	receivedWSAs 	0
scalar MyScenario.node[102].nic.phy80211p 	busyTime 	9.9428571428571e-05
scalar MyScenario.node[102].nic.mac1609_4 	ReceivedUnicastPackets 	0
scalar MyScenario.node[102].nic.mac1609_4 	ReceivedBroadcasts 	5
scalar MyScenario.node[102].nic.mac1609_4 	SentPackets 	1
scalar MyScenario.node[102].nic.mac1609_4 	SNIRLostPackets 	16
scalar MyScenario.node[102].nic.mac1609_4 	RXTXLostPackets 	12
scalar MyScenario.node[102].nic.mac1609_4 	TotalLostPackets 	28
scalar MyScenario.node[102].nic.mac1609_4 	DroppedPacketsInMac 	0
scalar MyScenario.node[102].nic.mac1609_4 	TooLittleTime 	0
scalar MyScenario.node[102].nic.mac1609_4 	TimesIntoBackoff 	1
scalar MyScenario.node[102].nic.mac1609_4 	SlotsBackoff 	3
scalar MyScenario.node[102].nic.mac1609_4 	NumInternalContention 	0
scalar MyScenario.node[102].nic.mac1609_4 	totalBusyTime 	0.002553169601
scalar MyScenario.node[102].veinsmobility 	startTime 	1
scalar MyScenario.node[102].veinsmobility 	totalTime 	48
scalar MyScenario.node[102].veinsmobility 	stopTime 	50
scalar MyScenario.node[102].veinsmobility 	minSpeed 	4.7064896312867e-06
scalar MyScenario.node[102].veinsmobility 	maxSpeed 	13.587887539621
scalar MyScenario.node[102].veinsmobility 	totalDistance 	274.97148145593
scalar MyScenario.node[102].veinsmobility 	totalCO2Emission 	139.19684111441
scalar MyScenario.node[4].appl 	generatedWSMs 	1
scalar MyScenario.node[4].appl 	receivedWSMs 	3
scalar MyScenario.node[4].appl 	generatedBSMs 	0
scalar MyScenario.node[4].appl 	receivedBSMs 	0
scalar MyScenario.node[4].appl 	generatedWSAs 	0
scalar MyScenario.node[4].appl 	receivedWSAs 	0
scalar MyScenario.node[4].nic.phy80211p 	busyTime 	6.6285714285714e-05
scalar MyScenario.node[4].nic.mac1609_4 	ReceivedUnicastPackets 	0
scalar MyScenario.node[4].nic.mac1609_4 	ReceivedBroadcasts 	3
scalar MyScenario.node[4].nic.mac1609_4 	SentPackets 	1
scalar MyScenario.node[4].nic.mac1609_4 	SNIRLostPackets 	11
scalar MyScenario.node[4].nic.mac1609_4 	RXTXLostPackets 	2
scalar MyScenario.node[4].nic.mac1609_4 	TotalLostPackets 	13
scalar MyScenario.node[4].nic.mac1609_4 	DroppedPacketsInMac 	0
scalar MyScenario.node[4].nic.mac1609_4 	TooLittleTime 	0
scalar MyScenario.node[4].nic.mac1609_4 	TimesIntoBackoff 	1
scalar MyScenario.node[4].nic.mac1609_4 	SlotsBackoff 	2
scalar MyScenario.node[4].nic.mac1609_4 	NumInternalContention 	0
scalar MyScenario.node[4].nic.mac1609_4 	totalBusyTime 	0.001625
scalar MyScenario.node[4].veinsmobility 	startTime 	1
scalar MyScenario.node[4].veinsmobility 	totalTime 	48
scalar MyScenario.node[4].veinsmobility 	stopTime 	50
scalar MyScenario.node[4].veinsmobility 	minSpeed 	2.2576716680313
scalar MyScenario.node[4].veinsmobility 	maxSpeed 	13.84902309624
scalar MyScenario.node[4].veinsmobility 	totalDistance 	572.23987573548
scalar MyScenario.node[4].veinsmobility 	totalCO2Emission 	145.85146827426
scalar MyScenario.node[116].appl 	generatedWSMs 	1
scalar MyScenario.node[116].appl 	receivedWSMs 	13
scalar MyScenario.node[116].appl 	generatedBSMs 	0
scalar MyScenario.node[116].appl 	receivedBSMs 	0
scalar MyScenario.node[116].appl 	generatedWSAs 	0
scalar MyScenario.node[116].appl 	receivedWSAs 	0
scalar MyScenario.node[116].nic.phy80211p 	busyTime 	0.00012492307692308
scalar MyScenario.node[116].nic.mac1609_4 	ReceivedUnicastPackets 	0
scalar MyScenario.node[116].nic.mac1609_4 	ReceivedBroadcasts 	13
scalar MyScenario.node[116].nic.mac1609_4 	SentPackets 	1
scalar MyScenario.node[116].nic.mac1609_4 	SNIRLostPackets 	15
scalar MyScenario.node[116].nic.mac1609_4 	RXTXLostPackets 	11
scalar MyScenario.node[116].nic.mac1609_4 	TotalLostPackets 	26
scalar MyScenario.node[116].nic.mac1609_4 	DroppedPacketsInMac 	0
scalar MyScenario.node[116].nic.mac1609_4 	TooLittleTime 	0
scalar MyScenario.node[116].nic.mac1609_4 	TimesIntoBackoff 	1
scalar MyScenario.node[116].nic.mac1609_4 	SlotsBackoff 	0
scalar MyScenario.node[116].nic.mac1609_4 	NumInternalContention 	0
scalar MyScenario.node[116].nic.mac1609_4 	totalBusyTime 	0.00487315716
scalar MyScenario.node[116].veinsmobility 	startTime 	1
scalar MyScenario.node[116].veinsmobility 	totalTime 	51
scalar MyScenario.node[116].veinsmobility 	stopTime 	53
scalar MyScenario.node[116].veinsmobility 	minSpeed 	1.8794253483415
scalar MyScenario.node[116].veinsmobility 	maxSpeed 	13.814999546809
scalar MyScenario.node[116].veinsmobility 	totalDistance 	561.52336582688
scalar MyScenario.node[116].veinsmobility 	totalCO2Emission 	159.2679617511
scalar MyScenario.node[32].appl 	generatedWSMs 	1
scalar MyScenario.node[32].appl 	receivedWSMs 	10
scalar MyScenario.node[32].appl 	generatedBSMs 	0
scalar MyScenario.node[32].appl 	receivedBSMs 	0
scalar MyScenario.node[32].appl 	generatedWSAs 	0
scalar MyScenario.node[32].appl 	receivedWSAs 	0
scalar MyScenario.node[32].nic.phy80211p 	busyTime 	7.5846153846154e-05
scalar MyScenario.node[32].nic.mac1609_4 	ReceivedUnicastPackets 	0
scalar MyScenario.node[32].nic.mac1609_4 	ReceivedBroadcasts 	10
scalar MyScenario.node[32].nic.mac1609_4 	SentPackets 	1
scalar MyScenario.node[32].nic.mac1609_4 	SNIRLostPackets 	7
scalar MyScenario.node[32].nic.mac1609_4 	RXTXLostPackets 	2
scalar MyScenario.node[32].nic.mac1609_4 	TotalLostPackets 	9
scalar MyScenario.node[32].nic.mac1609_4 	DroppedPacketsInMac 	0
scalar MyScenario.node[32].nic.mac1609_4 	TooLittleTime 	0
scalar MyScenario.node[32].nic.mac1609_4 	TimesIntoBackoff 	1
scalar MyScenario.node[32].nic.mac1609_4 	SlotsBackoff 	2
scalar MyScenario.node[32].nic.mac1609_4 	NumInternalContention 	0
scalar MyScenario.node[32].nic.mac1609_4 	totalBusyTime 	0.003017
scalar MyScenario.node[32].veinsmobility 	startTime 	1
scalar MyScenario.node[32].veinsmobility 	totalTime 	51
scalar MyScenario.node[32].veinsmobility 	stopTime 	53
scalar MyScenario.node[32].veinsmobility 	minSpeed 	1.6804915932706
scalar MyScenario.node[32].veinsmobility 	maxSpeed 	13.887777548167
scalar MyScenario.node[32].veinsmobility 	totalDistance 	555.42647461537
scalar MyScenario.node[32].veinsmobility 	totalCO2Emission 	177.6242323593
scalar MyScenario.node[117].appl 	generatedWSMs 	1
scalar MyScenario.node[117].appl 	receivedWSMs 	3
scalar MyScenario.node[117].appl 	generatedBSMs 	0
scalar MyScenario.node[117].appl 	receivedBSMs 	0
scalar MyScenario.node[117].appl 	generatedWSAs 	0
scalar MyScenario.node[117].appl 	receivedWSAs 	0
scalar MyScenario.node[117].nic.phy80211p 	busyTime 	0.00010943396226415
scalar MyScenario.node[117].nic.mac1609_4 	ReceivedUnicastPackets 	0
scalar MyScenario.node[117].nic.mac1609_4 	ReceivedBroadcasts 	3
scalar MyScenario.node[117].nic.mac1609_4 	SentPackets 	1
scalar MyScenario.node[117].nic.mac1609_4 	SNIRLostPackets 	22
scalar MyScenario.node[117].nic.mac1609_4 	RXTXLostPackets 	6
scalar MyScenario.node[117].nic.mac1609_4 	TotalLostPackets 	28
scalar MyScenario.node[117].nic.mac1609_4 	DroppedPacketsInMac 	0
scalar MyScenario.node[117].nic.mac1609_4 	TooLittleTime 	0
scalar MyScenario.node[117].nic.mac1609_4 	TimesIntoBackoff 	1
scalar MyScenario.node[117].nic.mac1609_4 	SlotsBackoff 	0
scalar MyScenario.node[117].nic.mac1609_4 	NumInternalContention 	0
scalar MyScenario.node[117].nic.mac1609_4 	totalBusyTime 	0.002089025836
scalar MyScenario.node[117].veinsmobility 	startTime 	1
scalar MyScenario.node[117].veinsmobility 	totalTime 	52
scalar MyScenario.node[117].veinsmobility 	stopTime 	54
scalar MyScenario.node[117].veinsmobility 	minSpeed 	1.0813338583249
scalar MyScenario.node[117].veinsmobility 	maxSpeed 	13.751217251946
scalar MyScenario.node[117].veinsmobility 	totalDistance 	575.43365865249
scalar MyScenario.node[117].veinsmobility 	totalCO2Emission 	154.23823816515
scalar MyScenario.node[84].appl 	generatedWSMs 	0
scalar MyScenario.node[84].appl 	receivedWSMs 	0
scalar MyScenario.node[84].appl 	generatedBSMs 	0
scalar MyScenario.node[84].appl 	receivedBSMs 	0
scalar MyScenario.node[84].appl 	generatedWSAs 	0
scalar MyScenario.node[84].appl 	receivedWSAs 	0
scalar MyScenario.node[84].nic.phy80211p 	busyTime 	4.8150943396226e-05
scalar MyScenario.node[84].nic.mac1609_4 	ReceivedUnicastPackets 	0
scalar MyScenario.node[84].nic.mac1609_4 	ReceivedBroadcasts 	0
scalar MyScenario.node[84].nic.mac1609_4 	SentPackets 	0
scalar MyScenario.node[84].nic.mac1609_4 	SNIRLostPackets 	11
scalar MyScenario.node[84].nic.mac1609_4 	RXTXLostPackets 	0
scalar MyScenario.node[84].nic.mac1609_4 	TotalLostPackets 	11
scalar MyScenario.node[84].nic.mac1609_4 	DroppedPacketsInMac 	0
scalar MyScenario.node[84].nic.mac1609_4 	TooLittleTime 	0
scalar MyScenario.node[84].nic.mac1609_4 	TimesIntoBackoff 	0
scalar MyScenario.node[84].nic.mac1609_4 	SlotsBackoff 	0
scalar MyScenario.node[84].nic.mac1609_4 	NumInternalContention 	0
scalar MyScenario.node[84].nic.mac1609_4 	totalBusyTime 	0.000696
scalar MyScenario.node[84].veinsmobility 	startTime 	1
scalar MyScenario.node[84].veinsmobility 	totalTime 	52
scalar MyScenario.node[84].veinsmobility 	stopTime 	54
scalar MyScenario.node[84].veinsmobility 	minSpeed 	2.3923520025332
scalar MyScenario.node[84].veinsmobility 	maxSpeed 	13.879830563744
scalar MyScenario.node[84].veinsmobility 	totalDistance 	583.15157341375
scalar MyScenario.node[84].veinsmobility 	totalCO2Emission 	178.36741930269
scalar MyScenario.node[165].appl 	generatedWSMs 	0
scalar MyScenario.node[165].appl 	receivedWSMs 	0
scalar MyScenario.node[165].appl 	generatedBSMs 	0
scalar MyScenario.node[165].appl 	receivedBSMs 	0
scalar MyScenario.node[165].appl 	generatedWSAs 	0
scalar MyScenario.node[165].appl 	receivedWSAs 	0
scalar MyScenario.node[165].nic.phy80211p 	busyTime 	1.7185185185185e-05
scalar MyScenario.node[165].nic.mac1609_4 	ReceivedUnicastPackets 	0
scalar MyScenario.node[165].nic.mac1609_4 	ReceivedBroadcasts 	0
scalar MyScenario.node[165].nic.mac1609_4 	SentPackets 	0
scalar MyScenario.node[165].nic.mac1609_4 	SNIRLostPackets 	4
scalar MyScenario.node[165].nic.mac1609_4 	RXTXLostPackets 	0
scalar MyScenario.node[165].nic.mac1609_4 	TotalLostPackets 	4
scalar MyScenario.node[165].nic.mac1609_4 	DroppedPacketsInMac 	0
scalar MyScenario.node[165].nic.mac1609_4 	TooLittleTime 	0
scalar MyScenario.node[165].nic.mac1609_4 	TimesIntoBackoff 	0
scalar MyScenario.node[165].nic.mac1609_4 	SlotsBackoff 	0
scalar MyScenario.node[165].nic.mac1609_4 	NumInternalContention 	0
scalar MyScenario.node[165].nic.mac1609_4 	totalBusyTime 	0.000232
scalar MyScenario.node[165].veinsmobility 	startTime 	4
scalar MyScenario.node[165].veinsmobility 	totalTime 	53
scalar MyScenario.node[165].veinsmobility 	stopTime 	58
scalar MyScenario.node[165].veinsmobility 	minSpeed 	2.5064414941706
scalar MyScenario.node[165].veinsmobility 	maxSpeed 	13.897463598661
scalar MyScenario.node[165].veinsmobility 	totalDistance 	659.49172114874
scalar MyScenario.node[165].veinsmobility 	totalCO2Emission 	135.65997812351
scalar MyScenario.node[26].appl 	generatedWSMs 	1
scalar MyScenario.node[26].appl 	receivedWSMs 	2
scalar MyScenario.node[26].appl 	generatedBSMs 	0
scalar MyScenario.node[26].appl 	receivedBSMs 	0
scalar MyScenario.node[26].appl 	generatedWSAs 	0
scalar MyScenario.node[26].appl 	receivedWSAs 	0
scalar MyScenario.node[26].nic.phy80211p 	busyTime 	1.2210526315789e-05
scalar MyScenario.node[26].nic.mac1609_4 	ReceivedUnicastPackets 	0
scalar MyScenario.node[26].nic.mac1609_4 	ReceivedBroadcasts 	2
scalar MyScenario.node[26].nic.mac1609_4 	SentPackets 	1
scalar MyScenario.node[26].nic.mac1609_4 	SNIRLostPackets 	1
scalar MyScenario.node[26].nic.mac1609_4 	RXTXLostPackets 	9
scalar MyScenario.node[26].nic.mac1609_4 	TotalLostPackets 	10
scalar MyScenario.node[26].nic.mac1609_4 	DroppedPacketsInMac 	0
scalar MyScenario.node[26].nic.mac1609_4 	TooLittleTime 	0
scalar MyScenario.node[26].nic.mac1609_4 	TimesIntoBackoff 	1
scalar MyScenario.node[26].nic.mac1609_4 	SlotsBackoff 	0
scalar MyScenario.node[26].nic.mac1609_4 	NumInternalContention 	0
scalar MyScenario.node[26].nic.mac1609_4 	totalBusyTime 	0.000929
scalar MyScenario.node[26].veinsmobility 	startTime 	1
scalar MyScenario.node[26].veinsmobility 	totalTime 	56
scalar MyScenario.node[26].veinsmobility 	stopTime 	58
scalar MyScenario.node[26].veinsmobility 	minSpeed 	1.7711846260587
scalar MyScenario.node[26].veinsmobility 	maxSpeed 	13.899197932938
scalar MyScenario.node[26].veinsmobility 	totalDistance 	679.5543052672
scalar MyScenario.node[26].veinsmobility 	totalCO2Emission 	163.04891577383
scalar MyScenario.node[115].appl 	generatedWSMs 	1
scalar MyScenario.node[115].appl 	receivedWSMs 	9
scalar MyScenario.node[115].appl 	generatedBSMs 	0
scalar MyScenario.node[115].appl 	receivedBSMs 	0
scalar MyScenario.node[115].appl 	generatedWSAs 	0
scalar MyScenario.node[115].appl 	receivedWSAs 	0
scalar MyScenario.node[115].nic.phy80211p 	busyTime 	9.3614035087719e-05
scalar MyScenario.node[115].nic.mac1609_4 	ReceivedUnicastPackets 	0
scalar MyScenario.node[115].nic.mac1609_4 	ReceivedBroadcasts 	9
scalar MyScenario.node[115].nic.mac1609_4 	SentPackets 	1
scalar MyScenario.node[115].nic.mac1609_4 	SNIRLostPackets 	14
scalar MyScenario.node[115].nic.mac1609_4 	RXTXLostPackets 	0
scalar MyScenario.node[115].nic.mac1609_4 	TotalLostPackets 	14
scalar MyScenario.node[115].nic.mac1609_4 	DroppedPacketsInMac 	0
scalar MyScenario.node[115].nic.mac1609_4 	TooLittleTime 	0
scalar MyScenario.node[115].nic.mac1609_4 	TimesIntoBackoff 	1
scalar MyScenario.node[115].nic.mac1609_4 	SlotsBackoff 	1
scalar MyScenario.node[115].nic.mac1609_4 	NumInternalContention 	0
scalar MyScenario.node[115].nic.mac1609_4 	totalBusyTime 	0.003017
scalar MyScenario.node[115].veinsmobility 	startTime 	1
scalar MyScenario.node[115].veinsmobility 	totalTime 	56
scalar MyScenario.node[115].veinsmobility 	stopTime 	58
scalar MyScenario.node[115].veinsmobility 	minSpeed 	0.0010255485258192
scalar MyScenario.node[115].veinsmobility 	maxSpeed 	13.8701790808
scalar MyScenario.node[115].veinsmobility 	totalDistance 	576.85690745281
scalar MyScenario.node[115].veinsmobility 	totalCO2Emission 	155.47199940161
scalar MyScenario.node[128].appl 	generatedWSMs 	1
scalar MyScenario.node[128].appl 	receivedWSMs 	16
scalar MyScenario.node[128].appl 	generatedBSMs 	0
scalar MyScenario.node[128].appl 	receivedBSMs 	0
scalar MyScenario.node[128].appl 	generatedWSAs 	0
scalar MyScenario.node[128].appl 	receivedWSAs 	0
scalar MyScenario.node[128].nic.phy80211p 	busyTime 	0.000188
scalar MyScenario.node[128].nic.mac1609_4 	ReceivedUnicastPackets 	0
scalar MyScenario.node[128].nic.mac1609_4 	ReceivedBroadcasts 	16
scalar MyScenario.node[128].nic.mac1609_4 	SentPackets 	1
scalar MyScenario.node[128].nic.mac1609_4 	SNIRLostPackets 	31
scalar MyScenario.node[128].nic.mac1609_4 	RXTXLostPackets 	12
scalar MyScenario.node[128].nic.mac1609_4 	TotalLostPackets 	43
scalar MyScenario.node[128].nic.mac1609_4 	DroppedPacketsInMac 	0
scalar MyScenario.node[128].nic.mac1609_4 	TooLittleTime 	0
scalar MyScenario.node[128].nic.mac1609_4 	TimesIntoBackoff 	1
scalar MyScenario.node[128].nic.mac1609_4 	SlotsBackoff 	0
scalar MyScenario.node[128].nic.mac1609_4 	NumInternalContention 	0
scalar MyScenario.node[128].nic.mac1609_4 	totalBusyTime 	0.005801095878
scalar MyScenario.node[128].veinsmobility 	startTime 	1
scalar MyScenario.node[128].veinsmobility 	totalTime 	57
scalar MyScenario.node[128].veinsmobility 	stopTime 	59
scalar MyScenario.node[128].veinsmobility 	minSpeed 	4.811903129088e-07
scalar MyScenario.node[128].veinsmobility 	maxSpeed 	13.866579453275
scalar MyScenario.node[128].veinsmobility 	totalDistance 	467.76776714627
scalar MyScenario.node[128].veinsmobility 	totalCO2Emission 	182.82352263378
scalar MyScenario.node[28].appl 	generatedWSMs 	0
scalar MyScenario.node[28].appl 	receivedWSMs 	0
scalar MyScenario.node[28].appl 	generatedBSMs 	0
scalar MyScenario.node[28].appl 	receivedBSMs 	0
scalar MyScenario.node[28].appl 	generatedWSAs 	0
scalar MyScenario.node[28].appl 	receivedWSAs 	0
scalar MyScenario.node[28].nic.phy80211p 	busyTime 	8e-06
scalar MyScenario.node[28].nic.mac1609_4 	ReceivedUnicastPackets 	0
scalar MyScenario.node[28].nic.mac1609_4 	ReceivedBroadcasts 	0
scalar MyScenario.node[28].nic.mac1609_4 	SentPackets 	0
scalar MyScenario.node[28].nic.mac1609_4 	SNIRLostPackets 	2
scalar MyScenario.node[28].nic.mac1609_4 	RXTXLostPackets 	0
scalar MyScenario.node[28].nic.mac1609_4 	TotalLostPackets 	2
scalar MyScenario.node[28].nic.mac1609_4 	DroppedPacketsInMac 	0
scalar MyScenario.node[28].nic.mac1609_4 	TooLittleTime 	0
scalar MyScenario.node[28].nic.mac1609_4 	TimesIntoBackoff 	0
scalar MyScenario.node[28].nic.mac1609_4 	SlotsBackoff 	0
scalar MyScenario.node[28].nic.mac1609_4 	NumInternalContention 	0
scalar MyScenario.node[28].nic.mac1609_4 	totalBusyTime 	0.000232
scalar MyScenario.node[28].veinsmobility 	startTime 	1
scalar MyScenario.node[28].veinsmobility 	totalTime 	57
scalar MyScenario.node[28].veinsmobility 	stopTime 	59
scalar MyScenario.node[28].veinsmobility 	minSpeed 	5.9044326086784e-06
scalar MyScenario.node[28].veinsmobility 	maxSpeed 	13.860746924509
scalar MyScenario.node[28].veinsmobility 	totalDistance 	378.16663535392
scalar MyScenario.node[28].veinsmobility 	totalCO2Emission 	161.71646623891
scalar MyScenario.node[53].appl 	generatedWSMs 	0
scalar MyScenario.node[53].appl 	receivedWSMs 	0
scalar MyScenario.node[53].appl 	generatedBSMs 	0
scalar MyScenario.node[53].appl 	receivedBSMs 	0
scalar MyScenario.node[53].appl 	generatedWSAs 	0
scalar MyScenario.node[53].appl 	receivedWSAs 	0
scalar MyScenario.node[53].nic.phy80211p 	busyTime 	4e-06
scalar MyScenario.node[53].nic.mac1609_4 	ReceivedUnicastPackets 	0
scalar MyScenario.node[53].nic.mac1609_4 	ReceivedBroadcasts 	0
scalar MyScenario.node[53].nic.mac1609_4 	SentPackets 	0
scalar MyScenario.node[53].nic.mac1609_4 	SNIRLostPackets 	1
scalar MyScenario.node[53].nic.mac1609_4 	RXTXLostPackets 	0
scalar MyScenario.node[53].nic.mac1609_4 	TotalLostPackets 	1
scalar MyScenario.node[53].nic.mac1609_4 	DroppedPacketsInMac 	0
scalar MyScenario.node[53].nic.mac1609_4 	TooLittleTime 	0
scalar MyScenario.node[53].nic.mac1609_4 	TimesIntoBackoff 	0
scalar MyScenario.node[53].nic.mac1609_4 	SlotsBackoff 	0
scalar MyScenario.node[53].nic.mac1609_4 	NumInternalContention 	0
scalar MyScenario.node[53].nic.mac1609_4 	totalBusyTime 	0.000232
scalar MyScenario.node[53].veinsmobility 	startTime 	1
scalar MyScenario.node[53].veinsmobility 	totalTime 	57
scalar MyScenario.node[53].veinsmobility 	stopTime 	59
scalar MyScenario.node[53].veinsmobility 	minSpeed 	0.0016051485599131
scalar MyScenario.node[53].veinsmobility 	maxSpeed 	13.863140380755
scalar MyScenario.node[53].veinsmobility 	totalDistance 	564.41432380285
scalar MyScenario.node[53].veinsmobility 	totalCO2Emission 	171.76364370461
scalar MyScenario.node[69].appl 	generatedWSMs 	1
scalar MyScenario.node[69].appl 	receivedWSMs 	6
scalar MyScenario.node[69].appl 	generatedBSMs 	0
scalar MyScenario.node[69].appl 	receivedBSMs 	0
scalar MyScenario.node[69].appl 	generatedWSAs 	0
scalar MyScenario.node[69].appl 	receivedWSAs 	0
scalar MyScenario.node[69].nic.phy80211p 	busyTime 	5.8983050847458e-05
scalar MyScenario.node[69].nic.mac1609_4 	ReceivedUnicastPackets 	0
scalar MyScenario.node[69].nic.mac1609_4 	ReceivedBroadcasts 	6
scalar MyScenario.node[69].nic.mac1609_4 	SentPackets 	1
scalar MyScenario.node[69].nic.mac1609_4 	SNIRLostPackets 	9
scalar MyScenario.node[69].nic.mac1609_4 	RXTXLostPackets 	4
scalar MyScenario.node[69].nic.mac1609_4 	TotalLostPackets 	13
scalar MyScenario.node[69].nic.mac1609_4 	DroppedPacketsInMac 	0
scalar MyScenario.node[69].nic.mac1609_4 	TooLittleTime 	0
scalar MyScenario.node[69].nic.mac1609_4 	TimesIntoBackoff 	1
scalar MyScenario.node[69].nic.mac1609_4 	SlotsBackoff 	2
scalar MyScenario.node[69].nic.mac1609_4 	NumInternalContention 	0
scalar MyScenario.node[69].nic.mac1609_4 	totalBusyTime 	0.002321
scalar MyScenario.node[69].veinsmobility 	startTime 	1
scalar MyScenario.node[69].veinsmobility 	totalTime 	58
scalar MyScenario.node[69].veinsmobility 	stopTime 	60
scalar MyScenario.node[69].veinsmobility 	minSpeed 	2.5307108550332
scalar MyScenario.node[69].veinsmobility 	maxSpeed 	13.864341566898
scalar MyScenario.node[69].veinsmobility 	totalDistance 	668.15540107625
scalar MyScenario.node[69].veinsmobility 	totalCO2Emission 	190.75503345258
scalar MyScenario.node[155].appl 	generatedWSMs 	1
scalar MyScenario.node[155].appl 	receivedWSMs 	8
scalar MyScenario.node[155].appl 	generatedBSMs 	0
scalar MyScenario.node[155].appl 	receivedBSMs 	0
scalar MyScenario.node[155].appl 	generatedWSAs 	0
scalar MyScenario.node[155].appl 	receivedWSAs 	0
scalar MyScenario.node[155].nic.phy80211p 	busyTime 	9.5285714285714e-05
scalar MyScenario.node[155].nic.mac1609_4 	ReceivedUnicastPackets 	0
scalar MyScenario.node[155].nic.mac1609_4 	ReceivedBroadcasts 	8
scalar MyScenario.node[155].nic.mac1609_4 	SentPackets 	1
scalar MyScenario.node[155].nic.mac1609_4 	SNIRLostPackets 	15
scalar MyScenario.node[155].nic.mac1609_4 	RXTXLostPackets 	9
scalar MyScenario.node[155].nic.mac1609_4 	TotalLostPackets 	24
scalar MyScenario.node[155].nic.mac1609_4 	DroppedPacketsInMac 	0
scalar MyScenario.node[155].nic.mac1609_4 	TooLittleTime 	0
scalar MyScenario.node[155].nic.mac1609_4 	TimesIntoBackoff 	1
scalar MyScenario.node[155].nic.mac1609_4 	SlotsBackoff 	3
scalar MyScenario.node[155].nic.mac1609_4 	NumInternalContention 	0
scalar MyScenario.node[155].nic.mac1609_4 	totalBusyTime 	0.003481072672
scalar MyScenario.node[155].veinsmobility 	startTime 	4
scalar MyScenario.node[155].veinsmobility 	totalTime 	55
scalar MyScenario.node[155].veinsmobility 	stopTime 	60
scalar MyScenario.node[155].veinsmobility 	minSpeed 	1.8980728176531
scalar MyScenario.node[155].veinsmobility 	maxSpeed 	13.89997857844
scalar MyScenario.node[155].veinsmobility 	totalDistance 	580.75750700385
scalar MyScenario.node[155].veinsmobility 	totalCO2Emission 	196.55580441665
scalar MyScenario.node[125].appl 	generatedWSMs 	0
scalar MyScenario.node[125].appl 	receivedWSMs 	0
scalar MyScenario.node[125].appl 	generatedBSMs 	0
scalar MyScenario.node[125].appl 	receivedBSMs 	0
scalar MyScenario.node[125].appl 	generatedWSAs 	0
scalar MyScenario.node[125].appl 	receivedWSAs 	0
scalar MyScenario.node[125].nic.phy80211p 	busyTime 	3.48e-05
scalar MyScenario.node[125].nic.mac1609_4 	ReceivedUnicastPackets 	0
scalar MyScenario.node[125].nic.mac1609_4 	ReceivedBroadcasts 	0
scalar MyScenario.node[125].nic.mac1609_4 	SentPackets 	0
scalar MyScenario.node[125].nic.mac1609_4 	SNIRLostPackets 	9
scalar MyScenario.node[125].nic.mac1609_4 	RXTXLostPackets 	0
scalar MyScenario.node[125].nic.mac1609_4 	TotalLostPackets 	9
scalar MyScenario.node[125].nic.mac1609_4 	DroppedPacketsInMac 	0
scalar MyScenario.node[125].nic.mac1609_4 	TooLittleTime 	0
scalar MyScenario.node[125].nic.mac1609_4 	TimesIntoBackoff 	0
scalar MyScenario.node[125].nic.mac1609_4 	SlotsBackoff 	0
scalar MyScenario.node[125].nic.mac1609_4 	NumInternalContention 	0
scalar MyScenario.node[125].nic.mac1609_4 	totalBusyTime 	0.000464
scalar MyScenario.node[125].veinsmobility 	startTime 	1
scalar MyScenario.node[125].veinsmobility 	totalTime 	59
scalar MyScenario.node[125].veinsmobility 	stopTime 	61
scalar MyScenario.node[125].veinsmobility 	minSpeed 	2.1310525114881
scalar MyScenario.node[125].veinsmobility 	maxSpeed 	13.897294374602
scalar MyScenario.node[125].veinsmobility 	totalDistance 	671.06044456984
scalar MyScenario.node[125].veinsmobility 	totalCO2Emission 	201.18787648367
scalar MyScenario.node[201].appl 	generatedWSMs 	0
scalar MyScenario.node[201].appl 	receivedWSMs 	0
scalar MyScenario.node[201].appl 	generatedBSMs 	0
scalar MyScenario.node[201].appl 	receivedBSMs 	0
scalar MyScenario.node[201].appl 	generatedWSAs 	0
scalar MyScenario.node[201].appl 	receivedWSAs 	0
scalar MyScenario.node[201].nic.phy80211p 	busyTime 	4.35e-05
scalar MyScenario.node[201].nic.mac1609_4 	ReceivedUnicastPackets 	0
scalar MyScenario.node[201].nic.mac1609_4 	ReceivedBroadcasts 	0
scalar MyScenario.node[201].nic.mac1609_4 	SentPackets 	0
scalar MyScenario.node[201].nic.mac1609_4 	SNIRLostPackets 	6
scalar MyScenario.node[201].nic.mac1609_4 	RXTXLostPackets 	0
scalar MyScenario.node[201].nic.mac1609_4 	TotalLostPackets 	6
scalar MyScenario.node[201].nic.mac1609_4 	DroppedPacketsInMac 	0
scalar MyScenario.node[201].nic.mac1609_4 	TooLittleTime 	0
scalar MyScenario.node[201].nic.mac1609_4 	TimesIntoBackoff 	0
scalar MyScenario.node[201].nic.mac1609_4 	SlotsBackoff 	0
scalar MyScenario.node[201].nic.mac1609_4 	NumInternalContention 	0
scalar MyScenario.node[201].nic.mac1609_4 	totalBusyTime 	0.000464
scalar MyScenario.node[201].veinsmobility 	startTime 	29
scalar MyScenario.node[201].veinsmobility 	totalTime 	31
scalar MyScenario.node[201].veinsmobility 	stopTime 	61
scalar MyScenario.node[201].veinsmobility 	minSpeed 	5.1837543962126
scalar MyScenario.node[201].veinsmobility 	maxSpeed 	13.863673802209
scalar MyScenario.node[201].veinsmobility 	totalDistance 	370.94072383928
scalar MyScenario.node[201].veinsmobility 	totalCO2Emission 	102.12590531901
scalar MyScenario.node[110].appl 	generatedWSMs 	0
scalar MyScenario.node[110].appl 	receivedWSMs 	0
scalar MyScenario.node[110].appl 	generatedBSMs 	0
scalar MyScenario.node[110].appl 	receivedBSMs 	0
scalar MyScenario.node[110].appl 	generatedWSAs 	0
scalar MyScenario.node[110].appl 	receivedWSAs 	0
scalar MyScenario.node[110].nic.phy80211p 	busyTime 	3.8032786885246e-06
scalar MyScenario.node[110].nic.mac1609_4 	ReceivedUnicastPackets 	0
scalar MyScenario.node[110].nic.mac1609_4 	ReceivedBroadcasts 	0
[...]
scalar MyScenario.node[198].nic.mac1609_4 	TotalLostPackets 	0
scalar MyScenario.node[198].nic.mac1609_4 	DroppedPacketsInMac 	0
scalar MyScenario.node[198].nic.mac1609_4 	TooLittleTime 	0
scalar MyScenario.node[198].nic.mac1609_4 	TimesIntoBackoff 	1
scalar MyScenario.node[198].nic.mac1609_4 	SlotsBackoff 	0
scalar MyScenario.node[198].nic.mac1609_4 	NumInternalContention 	0
scalar MyScenario.node[198].nic.mac1609_4 	totalBusyTime 	0.001625
scalar MyScenario.node[198].veinsmobility 	startTime 	14
scalar MyScenario.node[198].veinsmobility 	totalTime 	112
scalar MyScenario.node[198].veinsmobility 	stopTime 	127
scalar MyScenario.node[198].veinsmobility 	minSpeed 	4.473738214083e-08
scalar MyScenario.node[198].veinsmobility 	maxSpeed 	13.893424153724
scalar MyScenario.node[198].veinsmobility 	totalDistance 	1183.5861348278
scalar MyScenario.node[198].veinsmobility 	totalCO2Emission 	274.81821779114
scalar MyScenario.node[183].appl 	generatedWSMs 	0
scalar MyScenario.node[183].appl 	receivedWSMs 	0
scalar MyScenario.node[183].appl 	generatedBSMs 	0
scalar MyScenario.node[183].appl 	receivedBSMs 	0
scalar MyScenario.node[183].appl 	generatedWSAs 	0
scalar MyScenario.node[183].appl 	receivedWSAs 	0
scalar MyScenario.node[183].nic.phy80211p 	busyTime 	1.4848e-05
scalar MyScenario.node[183].nic.mac1609_4 	ReceivedUnicastPackets 	0
scalar MyScenario.node[183].nic.mac1609_4 	ReceivedBroadcasts 	0
scalar MyScenario.node[183].nic.mac1609_4 	SentPackets 	0
scalar MyScenario.node[183].nic.mac1609_4 	SNIRLostPackets 	8
scalar MyScenario.node[183].nic.mac1609_4 	RXTXLostPackets 	0
scalar MyScenario.node[183].nic.mac1609_4 	TotalLostPackets 	8
scalar MyScenario.node[183].nic.mac1609_4 	DroppedPacketsInMac 	0
scalar MyScenario.node[183].nic.mac1609_4 	TooLittleTime 	0
scalar MyScenario.node[183].nic.mac1609_4 	TimesIntoBackoff 	0
scalar MyScenario.node[183].nic.mac1609_4 	SlotsBackoff 	0
scalar MyScenario.node[183].nic.mac1609_4 	NumInternalContention 	0
scalar MyScenario.node[183].nic.mac1609_4 	totalBusyTime 	0.000696
scalar MyScenario.node[183].veinsmobility 	startTime 	4
scalar MyScenario.node[183].veinsmobility 	totalTime 	124
scalar MyScenario.node[183].veinsmobility 	stopTime 	129
scalar MyScenario.node[183].veinsmobility 	minSpeed 	2.1258159962483
scalar MyScenario.node[183].veinsmobility 	maxSpeed 	13.831900797226
scalar MyScenario.node[183].veinsmobility 	totalDistance 	1568.1837688148
scalar MyScenario.node[183].veinsmobility 	totalCO2Emission 	335.05197231465
scalar MyScenario.node[24].appl 	generatedWSMs 	1
scalar MyScenario.node[24].appl 	receivedWSMs 	20
scalar MyScenario.node[24].appl 	generatedBSMs 	0
scalar MyScenario.node[24].appl 	receivedBSMs 	0
scalar MyScenario.node[24].appl 	generatedWSAs 	0
scalar MyScenario.node[24].appl 	receivedWSAs 	0
scalar MyScenario.node[24].nic.phy80211p 	busyTime 	0.00010970542635659
scalar MyScenario.node[24].nic.mac1609_4 	ReceivedUnicastPackets 	0
scalar MyScenario.node[24].nic.mac1609_4 	ReceivedBroadcasts 	20
scalar MyScenario.node[24].nic.mac1609_4 	SentPackets 	1
scalar MyScenario.node[24].nic.mac1609_4 	SNIRLostPackets 	41
scalar MyScenario.node[24].nic.mac1609_4 	RXTXLostPackets 	6
scalar MyScenario.node[24].nic.mac1609_4 	TotalLostPackets 	47
scalar MyScenario.node[24].nic.mac1609_4 	DroppedPacketsInMac 	0
scalar MyScenario.node[24].nic.mac1609_4 	TooLittleTime 	0
scalar MyScenario.node[24].nic.mac1609_4 	TimesIntoBackoff 	1
scalar MyScenario.node[24].nic.mac1609_4 	SlotsBackoff 	1
scalar MyScenario.node[24].nic.mac1609_4 	NumInternalContention 	0
scalar MyScenario.node[24].nic.mac1609_4 	totalBusyTime 	0.006729
scalar MyScenario.node[24].veinsmobility 	startTime 	1
scalar MyScenario.node[24].veinsmobility 	totalTime 	128
scalar MyScenario.node[24].veinsmobility 	stopTime 	130
scalar MyScenario.node[24].veinsmobility 	minSpeed 	1.8656833724184e-12
scalar MyScenario.node[24].veinsmobility 	maxSpeed 	13.890439785924
scalar MyScenario.node[24].veinsmobility 	totalDistance 	1263.9607178561
scalar MyScenario.node[24].veinsmobility 	totalCO2Emission 	398.59062298512
scalar MyScenario.node[113].appl 	generatedWSMs 	1
scalar MyScenario.node[113].appl 	receivedWSMs 	10
scalar MyScenario.node[113].appl 	generatedBSMs 	0
scalar MyScenario.node[113].appl 	receivedBSMs 	0
scalar MyScenario.node[113].appl 	generatedWSAs 	0
scalar MyScenario.node[113].appl 	receivedWSAs 	0
scalar MyScenario.node[113].nic.phy80211p 	busyTime 	4.3162790697674e-05
scalar MyScenario.node[113].nic.mac1609_4 	ReceivedUnicastPackets 	0
scalar MyScenario.node[113].nic.mac1609_4 	ReceivedBroadcasts 	10
scalar MyScenario.node[113].nic.mac1609_4 	SentPackets 	1
scalar MyScenario.node[113].nic.mac1609_4 	SNIRLostPackets 	14
scalar MyScenario.node[113].nic.mac1609_4 	RXTXLostPackets 	11
scalar MyScenario.node[113].nic.mac1609_4 	TotalLostPackets 	25
scalar MyScenario.node[113].nic.mac1609_4 	DroppedPacketsInMac 	0
scalar MyScenario.node[113].nic.mac1609_4 	TooLittleTime 	0
scalar MyScenario.node[113].nic.mac1609_4 	TimesIntoBackoff 	1
scalar MyScenario.node[113].nic.mac1609_4 	SlotsBackoff 	0
scalar MyScenario.node[113].nic.mac1609_4 	NumInternalContention 	0
scalar MyScenario.node[113].nic.mac1609_4 	totalBusyTime 	0.004409226641
scalar MyScenario.node[113].veinsmobility 	startTime 	1
scalar MyScenario.node[113].veinsmobility 	totalTime 	128
scalar MyScenario.node[113].veinsmobility 	stopTime 	130
scalar MyScenario.node[113].veinsmobility 	minSpeed 	0.00032035300922692
scalar MyScenario.node[113].veinsmobility 	maxSpeed 	13.889330303599
scalar MyScenario.node[113].veinsmobility 	totalDistance 	1265.665504693
scalar MyScenario.node[113].veinsmobility 	totalCO2Emission 	415.74660519328
scalar MyScenario.node[81].appl 	generatedWSMs 	1
scalar MyScenario.node[81].appl 	receivedWSMs 	10
scalar MyScenario.node[81].appl 	generatedBSMs 	0
scalar MyScenario.node[81].appl 	receivedBSMs 	0
scalar MyScenario.node[81].appl 	generatedWSAs 	0
scalar MyScenario.node[81].appl 	receivedWSAs 	0
scalar MyScenario.node[81].nic.phy80211p 	busyTime 	4.6759689922481e-05
scalar MyScenario.node[81].nic.mac1609_4 	ReceivedUnicastPackets 	0
scalar MyScenario.node[81].nic.mac1609_4 	ReceivedBroadcasts 	10
scalar MyScenario.node[81].nic.mac1609_4 	SentPackets 	1
scalar MyScenario.node[81].nic.mac1609_4 	SNIRLostPackets 	16
scalar MyScenario.node[81].nic.mac1609_4 	RXTXLostPackets 	12
scalar MyScenario.node[81].nic.mac1609_4 	TotalLostPackets 	28
scalar MyScenario.node[81].nic.mac1609_4 	DroppedPacketsInMac 	0
scalar MyScenario.node[81].nic.mac1609_4 	TooLittleTime 	0
scalar MyScenario.node[81].nic.mac1609_4 	TimesIntoBackoff 	1
scalar MyScenario.node[81].nic.mac1609_4 	SlotsBackoff 	2
scalar MyScenario.node[81].nic.mac1609_4 	NumInternalContention 	0
scalar MyScenario.node[81].nic.mac1609_4 	totalBusyTime 	0.003713071021
scalar MyScenario.node[81].veinsmobility 	startTime 	1
scalar MyScenario.node[81].veinsmobility 	totalTime 	128
scalar MyScenario.node[81].veinsmobility 	stopTime 	130
scalar MyScenario.node[81].veinsmobility 	minSpeed 	0.46325278147916
scalar MyScenario.node[81].veinsmobility 	maxSpeed 	13.89637061723
scalar MyScenario.node[81].veinsmobility 	totalDistance 	1568.3152229525
scalar MyScenario.node[81].veinsmobility 	totalCO2Emission 	339.74767309706
scalar MyScenario.node[20].appl 	generatedWSMs 	0
scalar MyScenario.node[20].appl 	receivedWSMs 	0
scalar MyScenario.node[20].appl 	generatedBSMs 	0
scalar MyScenario.node[20].appl 	receivedBSMs 	0
scalar MyScenario.node[20].appl 	generatedWSAs 	0
scalar MyScenario.node[20].appl 	receivedWSAs 	0
scalar MyScenario.node[20].nic.phy80211p 	busyTime 	7.030303030303e-06
scalar MyScenario.node[20].nic.mac1609_4 	ReceivedUnicastPackets 	0
scalar MyScenario.node[20].nic.mac1609_4 	ReceivedBroadcasts 	0
scalar MyScenario.node[20].nic.mac1609_4 	SentPackets 	0
scalar MyScenario.node[20].nic.mac1609_4 	SNIRLostPackets 	4
scalar MyScenario.node[20].nic.mac1609_4 	RXTXLostPackets 	0
scalar MyScenario.node[20].nic.mac1609_4 	TotalLostPackets 	4
scalar MyScenario.node[20].nic.mac1609_4 	DroppedPacketsInMac 	0
scalar MyScenario.node[20].nic.mac1609_4 	TooLittleTime 	0
scalar MyScenario.node[20].nic.mac1609_4 	TimesIntoBackoff 	0
scalar MyScenario.node[20].nic.mac1609_4 	SlotsBackoff 	0
scalar MyScenario.node[20].nic.mac1609_4 	NumInternalContention 	0
scalar MyScenario.node[20].nic.mac1609_4 	totalBusyTime 	0.000464
scalar MyScenario.node[20].veinsmobility 	startTime 	1
scalar MyScenario.node[20].veinsmobility 	totalTime 	131
scalar MyScenario.node[20].veinsmobility 	stopTime 	133
scalar MyScenario.node[20].veinsmobility 	minSpeed 	0.0066566987160415
scalar MyScenario.node[20].veinsmobility 	maxSpeed 	13.860149897309
scalar MyScenario.node[20].veinsmobility 	totalDistance 	1366.8214036553
scalar MyScenario.node[20].veinsmobility 	totalCO2Emission 	410.59300409379
scalar MyScenario.node[130].appl 	generatedWSMs 	1
scalar MyScenario.node[130].appl 	receivedWSMs 	3
scalar MyScenario.node[130].appl 	generatedBSMs 	0
scalar MyScenario.node[130].appl 	receivedBSMs 	0
scalar MyScenario.node[130].appl 	generatedWSAs 	0
scalar MyScenario.node[130].appl 	receivedWSAs 	0
scalar MyScenario.node[130].nic.phy80211p 	busyTime 	3.8375939849624e-05
scalar MyScenario.node[130].nic.mac1609_4 	ReceivedUnicastPackets 	0
scalar MyScenario.node[130].nic.mac1609_4 	ReceivedBroadcasts 	3
scalar MyScenario.node[130].nic.mac1609_4 	SentPackets 	1
scalar MyScenario.node[130].nic.mac1609_4 	SNIRLostPackets 	19
scalar MyScenario.node[130].nic.mac1609_4 	RXTXLostPackets 	10
scalar MyScenario.node[130].nic.mac1609_4 	TotalLostPackets 	29
scalar MyScenario.node[130].nic.mac1609_4 	DroppedPacketsInMac 	0
scalar MyScenario.node[130].nic.mac1609_4 	TooLittleTime 	0
scalar MyScenario.node[130].nic.mac1609_4 	TimesIntoBackoff 	1
scalar MyScenario.node[130].nic.mac1609_4 	SlotsBackoff 	3
scalar MyScenario.node[130].nic.mac1609_4 	NumInternalContention 	0
scalar MyScenario.node[130].nic.mac1609_4 	totalBusyTime 	0.002321
scalar MyScenario.node[130].veinsmobility 	startTime 	1
scalar MyScenario.node[130].veinsmobility 	totalTime 	132
scalar MyScenario.node[130].veinsmobility 	stopTime 	134
scalar MyScenario.node[130].veinsmobility 	minSpeed 	2.0864541091723
scalar MyScenario.node[130].veinsmobility 	maxSpeed 	13.896197994682
scalar MyScenario.node[130].veinsmobility 	totalDistance 	1556.1490885876
scalar MyScenario.node[130].veinsmobility 	totalCO2Emission 	428.01485279649
scalar MyScenario.node[129].appl 	generatedWSMs 	1
scalar MyScenario.node[129].appl 	receivedWSMs 	3
scalar MyScenario.node[129].appl 	generatedBSMs 	0
scalar MyScenario.node[129].appl 	receivedBSMs 	0
scalar MyScenario.node[129].appl 	generatedWSAs 	0
scalar MyScenario.node[129].appl 	receivedWSAs 	0
scalar MyScenario.node[129].nic.phy80211p 	busyTime 	4.5014925373134e-05
scalar MyScenario.node[129].nic.mac1609_4 	ReceivedUnicastPackets 	0
scalar MyScenario.node[129].nic.mac1609_4 	ReceivedBroadcasts 	3
scalar MyScenario.node[129].nic.mac1609_4 	SentPackets 	1
scalar MyScenario.node[129].nic.mac1609_4 	SNIRLostPackets 	23
scalar MyScenario.node[129].nic.mac1609_4 	RXTXLostPackets 	5
scalar MyScenario.node[129].nic.mac1609_4 	TotalLostPackets 	28
scalar MyScenario.node[129].nic.mac1609_4 	DroppedPacketsInMac 	0
scalar MyScenario.node[129].nic.mac1609_4 	TooLittleTime 	0
scalar MyScenario.node[129].nic.mac1609_4 	TimesIntoBackoff 	1
scalar MyScenario.node[129].nic.mac1609_4 	SlotsBackoff 	1
scalar MyScenario.node[129].nic.mac1609_4 	NumInternalContention 	0
scalar MyScenario.node[129].nic.mac1609_4 	totalBusyTime 	0.002089116912
scalar MyScenario.node[129].veinsmobility 	startTime 	1
scalar MyScenario.node[129].veinsmobility 	totalTime 	133
scalar MyScenario.node[129].veinsmobility 	stopTime 	135
scalar MyScenario.node[129].veinsmobility 	minSpeed 	0.014845487881163
scalar MyScenario.node[129].veinsmobility 	maxSpeed 	13.892458592635
scalar MyScenario.node[129].veinsmobility 	totalDistance 	1369.4794538575
scalar MyScenario.node[129].veinsmobility 	totalCO2Emission 	422.60249296772
scalar MyScenario.node[37].appl 	generatedWSMs 	1
scalar MyScenario.node[37].appl 	receivedWSMs 	5
scalar MyScenario.node[37].appl 	generatedBSMs 	0
scalar MyScenario.node[37].appl 	receivedBSMs 	0
scalar MyScenario.node[37].appl 	generatedWSAs 	0
scalar MyScenario.node[37].appl 	receivedWSAs 	0
scalar MyScenario.node[37].nic.phy80211p 	busyTime 	3.437037037037e-05
scalar MyScenario.node[37].nic.mac1609_4 	ReceivedUnicastPackets 	0
scalar MyScenario.node[37].nic.mac1609_4 	ReceivedBroadcasts 	5
scalar MyScenario.node[37].nic.mac1609_4 	SentPackets 	1
scalar MyScenario.node[37].nic.mac1609_4 	SNIRLostPackets 	15
scalar MyScenario.node[37].nic.mac1609_4 	RXTXLostPackets 	17
scalar MyScenario.node[37].nic.mac1609_4 	TotalLostPackets 	32
scalar MyScenario.node[37].nic.mac1609_4 	DroppedPacketsInMac 	0
scalar MyScenario.node[37].nic.mac1609_4 	TooLittleTime 	0
scalar MyScenario.node[37].nic.mac1609_4 	TimesIntoBackoff 	1
scalar MyScenario.node[37].nic.mac1609_4 	SlotsBackoff 	0
scalar MyScenario.node[37].nic.mac1609_4 	NumInternalContention 	0
scalar MyScenario.node[37].nic.mac1609_4 	totalBusyTime 	0.002321
scalar MyScenario.node[37].veinsmobility 	startTime 	1
scalar MyScenario.node[37].veinsmobility 	totalTime 	134
scalar MyScenario.node[37].veinsmobility 	stopTime 	136
scalar MyScenario.node[37].veinsmobility 	minSpeed 	8.3657670375794e-05
scalar MyScenario.node[37].veinsmobility 	maxSpeed 	13.891478031036
scalar MyScenario.node[37].veinsmobility 	totalDistance 	1378.1330124859
scalar MyScenario.node[37].veinsmobility 	totalCO2Emission 	429.80730566935
scalar MyScenario.node[136].appl 	generatedWSMs 	1
scalar MyScenario.node[136].appl 	receivedWSMs 	3
scalar MyScenario.node[136].appl 	generatedBSMs 	0
scalar MyScenario.node[136].appl 	receivedBSMs 	0
scalar MyScenario.node[136].appl 	generatedWSAs 	0
scalar MyScenario.node[136].appl 	receivedWSAs 	0
scalar MyScenario.node[136].nic.phy80211p 	busyTime 	2.5401459854015e-05
scalar MyScenario.node[136].nic.mac1609_4 	ReceivedUnicastPackets 	0
scalar MyScenario.node[136].nic.mac1609_4 	ReceivedBroadcasts 	3
scalar MyScenario.node[136].nic.mac1609_4 	SentPackets 	1
scalar MyScenario.node[136].nic.mac1609_4 	SNIRLostPackets 	12
scalar MyScenario.node[136].nic.mac1609_4 	RXTXLostPackets 	2
scalar MyScenario.node[136].nic.mac1609_4 	TotalLostPackets 	14
scalar MyScenario.node[136].nic.mac1609_4 	DroppedPacketsInMac 	0
scalar MyScenario.node[136].nic.mac1609_4 	TooLittleTime 	0
scalar MyScenario.node[136].nic.mac1609_4 	TimesIntoBackoff 	1
scalar MyScenario.node[136].nic.mac1609_4 	SlotsBackoff 	0
scalar MyScenario.node[136].nic.mac1609_4 	NumInternalContention 	0
scalar MyScenario.node[136].nic.mac1609_4 	totalBusyTime 	0.001857
scalar MyScenario.node[136].veinsmobility 	startTime 	1
scalar MyScenario.node[136].veinsmobility 	totalTime 	136
scalar MyScenario.node[136].veinsmobility 	stopTime 	138
scalar MyScenario.node[136].veinsmobility 	minSpeed 	2.2547324815532
scalar MyScenario.node[136].veinsmobility 	maxSpeed 	13.896640940895
scalar MyScenario.node[136].veinsmobility 	totalDistance 	1569.0219845623
scalar MyScenario.node[136].veinsmobility 	totalCO2Emission 	443.98948970482
scalar MyScenario.node[134].appl 	generatedWSMs 	1
scalar MyScenario.node[134].appl 	receivedWSMs 	10
scalar MyScenario.node[134].appl 	generatedBSMs 	0
scalar MyScenario.node[134].appl 	receivedBSMs 	0
scalar MyScenario.node[134].appl 	generatedWSAs 	0
scalar MyScenario.node[134].appl 	receivedWSAs 	0
scalar MyScenario.node[134].nic.phy80211p 	busyTime 	2.0657534246575e-05
scalar MyScenario.node[134].nic.mac1609_4 	ReceivedUnicastPackets 	0
scalar MyScenario.node[134].nic.mac1609_4 	ReceivedBroadcasts 	10
scalar MyScenario.node[134].nic.mac1609_4 	SentPackets 	1
scalar MyScenario.node[134].nic.mac1609_4 	SNIRLostPackets 	3
scalar MyScenario.node[134].nic.mac1609_4 	RXTXLostPackets 	7
scalar MyScenario.node[134].nic.mac1609_4 	TotalLostPackets 	10
scalar MyScenario.node[134].nic.mac1609_4 	DroppedPacketsInMac 	0
scalar MyScenario.node[134].nic.mac1609_4 	TooLittleTime 	0
scalar MyScenario.node[134].nic.mac1609_4 	TimesIntoBackoff 	1
scalar MyScenario.node[134].nic.mac1609_4 	SlotsBackoff 	3
scalar MyScenario.node[134].nic.mac1609_4 	NumInternalContention 	0
scalar MyScenario.node[134].nic.mac1609_4 	totalBusyTime 	0.003017105575
scalar MyScenario.node[134].veinsmobility 	startTime 	1
scalar MyScenario.node[134].veinsmobility 	totalTime 	145
scalar MyScenario.node[134].veinsmobility 	stopTime 	147
scalar MyScenario.node[134].veinsmobility 	minSpeed 	4.1710742436427e-07
scalar MyScenario.node[134].veinsmobility 	maxSpeed 	13.888982354663
scalar MyScenario.node[134].veinsmobility 	totalDistance 	1362.798282582
scalar MyScenario.node[134].veinsmobility 	totalCO2Emission 	437.89214130532
scalar MyScenario.node[65].appl 	generatedWSMs 	0
scalar MyScenario.node[65].appl 	receivedWSMs 	0
scalar MyScenario.node[65].appl 	generatedBSMs 	0
scalar MyScenario.node[65].appl 	receivedBSMs 	0
scalar MyScenario.node[65].appl 	generatedWSAs 	0
scalar MyScenario.node[65].appl 	receivedWSAs 	0
scalar MyScenario.node[65].nic.phy80211p 	busyTime 	0
scalar MyScenario.node[65].nic.mac1609_4 	ReceivedUnicastPackets 	0
scalar MyScenario.node[65].nic.mac1609_4 	ReceivedBroadcasts 	0
scalar MyScenario.node[65].nic.mac1609_4 	SentPackets 	0
scalar MyScenario.node[65].nic.mac1609_4 	SNIRLostPackets 	0
scalar MyScenario.node[65].nic.mac1609_4 	RXTXLostPackets 	0
scalar MyScenario.node[65].nic.mac1609_4 	TotalLostPackets 	0
scalar MyScenario.node[65].nic.mac1609_4 	DroppedPacketsInMac 	0
scalar MyScenario.node[65].nic.mac1609_4 	TooLittleTime 	0
scalar MyScenario.node[65].nic.mac1609_4 	TimesIntoBackoff 	0
scalar MyScenario.node[65].nic.mac1609_4 	SlotsBackoff 	0
scalar MyScenario.node[65].nic.mac1609_4 	NumInternalContention 	0
scalar MyScenario.node[65].nic.mac1609_4 	totalBusyTime 	0
scalar MyScenario.node[65].veinsmobility 	startTime 	1
scalar MyScenario.node[65].veinsmobility 	totalTime 	146
scalar MyScenario.node[65].veinsmobility 	stopTime 	148
scalar MyScenario.node[65].veinsmobility 	minSpeed 	1.2376371457012
scalar MyScenario.node[65].veinsmobility 	maxSpeed 	13.867057508533
scalar MyScenario.node[65].veinsmobility 	totalDistance 	1673.6090829653
scalar MyScenario.node[65].veinsmobility 	totalCO2Emission 	489.81915551136
scalar MyScenario.node[199].appl 	generatedWSMs 	0
scalar MyScenario.node[199].appl 	receivedWSMs 	0
scalar MyScenario.node[199].appl 	generatedBSMs 	0
scalar MyScenario.node[199].appl 	receivedBSMs 	0
scalar MyScenario.node[199].appl 	generatedWSAs 	0
scalar MyScenario.node[199].appl 	receivedWSAs 	0
scalar MyScenario.node[199].nic.phy80211p 	busyTime 	1.7313432835821e-06
scalar MyScenario.node[199].nic.mac1609_4 	ReceivedUnicastPackets 	0
scalar MyScenario.node[199].nic.mac1609_4 	ReceivedBroadcasts 	0
scalar MyScenario.node[199].nic.mac1609_4 	SentPackets 	0
scalar MyScenario.node[199].nic.mac1609_4 	SNIRLostPackets 	1
scalar MyScenario.node[199].nic.mac1609_4 	RXTXLostPackets 	0
scalar MyScenario.node[199].nic.mac1609_4 	TotalLostPackets 	1
scalar MyScenario.node[199].nic.mac1609_4 	DroppedPacketsInMac 	0
scalar MyScenario.node[199].nic.mac1609_4 	TooLittleTime 	0
scalar MyScenario.node[199].nic.mac1609_4 	TimesIntoBackoff 	0
scalar MyScenario.node[199].nic.mac1609_4 	SlotsBackoff 	0
scalar MyScenario.node[199].nic.mac1609_4 	NumInternalContention 	0
scalar MyScenario.node[199].nic.mac1609_4 	totalBusyTime 	0.000232
scalar MyScenario.node[199].veinsmobility 	startTime 	15
scalar MyScenario.node[199].veinsmobility 	totalTime 	133
scalar MyScenario.node[199].veinsmobility 	stopTime 	149
scalar MyScenario.node[199].veinsmobility 	minSpeed 	9.8780357929876e-10
scalar MyScenario.node[199].veinsmobility 	maxSpeed 	13.893230137462
scalar MyScenario.node[199].veinsmobility 	totalDistance 	1469.7213422099
scalar MyScenario.node[199].veinsmobility 	totalCO2Emission 	334.29302257264
