version 2
run General-22-20170829-17:41:38-8100
attr configname General
attr datetime 20170829-17:41:38
attr density 300
attr experiment General
attr inifile omnetpp.ini
attr iterationvars $density=300
attr iterationvars2 "$density=300, $repetition=2"
attr measurement $density=300
attr network com.liborio.pi.MyScenario
attr processid 8100
attr repetition 2
attr replication #2
attr resultdir results
attr runnumber 22
attr seedset 2
param **.coreDebug false
param **.debug false
param *.**.nic.mac1609_4.bitrate 6Mbps
param *.**.nic.mac1609_4.txPower 20mW
param *.**.nic.mac1609_4.useServiceChannel true
param *.**.nic.phy80211p.analogueModels "xmldoc(\"config.xml\")"
param *.**.nic.phy80211p.antenna "xmldoc(\"antenna.xml\", \"/root/Antenna[@id='monopole']\")"
param *.**.nic.phy80211p.decider "xmldoc(\"config.xml\")"
param *.**.nic.phy80211p.sensitivity -84.39dBm
param *.**.nic.phy80211p.thermalNoise -110dBm
param *.**.nic.phy80211p.usePropagationDelay true
param *.**.nic.phy80211p.useThermalNoise true
param *.annotations.draw true
param *.connectionManager.drawMaxIntfDist false
param *.connectionManager.maxInterfDist 2600m
param *.connectionManager.sendDirect true
param *.manager.autoShutdown true
param *.manager.host "\"localhost\""
param *.manager.launchConfig "xmldoc(string(${density = 100, 200, 300, 400})+\"_\"+ string(${repetition})+\".launchd.xml\")"
param *.manager.port 9999
param *.manager.updateInterval 1s
param *.node[*].appl.beaconInterval 1s
param *.node[*].appl.dataOnSch true
param *.node[*].appl.headerLength "80 bit"
param *.node[*].appl.isSource false
param *.node[*].appl.numMsgs 100
param *.node[*].appl.sendBeacons false
param *.node[*].appl.stopTrafficTime 130s
param *.node[*].appl.wsmInterval 3s
param *.node[*].applType "\"Flooding\""
param *.node[*].veinsmobility.x 0
param *.node[*].veinsmobility.y 0
param *.node[*].veinsmobility.z 1.895
param *.node[*].veinsmobilityType.debug true
param *.node[0].appl.isSource true
param *.playgroundSizeX 2500m
param *.playgroundSizeY 2500m
param *.playgroundSizeZ 50m

scalar . 	density 	300
scalar MyScenario.node[14].appl 	generatedWSMs 	0
scalar MyScenario.node[14].appl 	receivedWSMs 	0
scalar MyScenario.node[14].appl 	generatedBSMs 	0
scalar MyScenario.node[14].appl 	receivedBSMs 	0
scalar MyScenario.node[14].appl 	generatedWSAs 	0
scalar MyScenario.node[14].appl 	receivedWSAs 	0
scalar MyScenario.node[14].nic.phy80211p 	busyTime 	0
scalar MyScenario.node[14].nic.mac1609_4 	ReceivedUnicastPackets 	0
scalar MyScenario.node[14].nic.mac1609_4 	ReceivedBroadcasts 	0
scalar MyScenario.node[14].nic.mac1609_4 	SentPackets 	0
scalar MyScenario.node[14].nic.mac1609_4 	SNIRLostPackets 	0
scalar MyScenario.node[14].nic.mac1609_4 	RXTXLostPackets 	0
scalar MyScenario.node[14].nic.mac1609_4 	TotalLostPackets 	0
scalar MyScenario.node[14].nic.mac1609_4 	DroppedPacketsInMac 	0
scalar MyScenario.node[14].nic.mac1609_4 	TooLittleTime 	0
scalar MyScenario.node[14].nic.mac1609_4 	TimesIntoBackoff 	0
scalar MyScenario.node[14].nic.mac1609_4 	SlotsBackoff 	0
scalar MyScenario.node[14].nic.mac1609_4 	NumInternalContention 	0
scalar MyScenario.node[14].nic.mac1609_4 	totalBusyTime 	0
scalar MyScenario.node[14].veinsmobility 	startTime 	1
scalar MyScenario.node[14].veinsmobility 	totalTime 	8
scalar MyScenario.node[14].veinsmobility 	stopTime 	10
scalar MyScenario.node[14].veinsmobility 	minSpeed 	2.484339174442
scalar MyScenario.node[14].veinsmobility 	maxSpeed 	13.873942384869
scalar MyScenario.node[14].veinsmobility 	totalDistance 	73.783977997745
scalar MyScenario.node[14].veinsmobility 	totalCO2Emission 	36.52786509773
scalar MyScenario.node[146].appl 	generatedWSMs 	0
scalar MyScenario.node[146].appl 	receivedWSMs 	0
scalar MyScenario.node[146].appl 	generatedBSMs 	0
scalar MyScenario.node[146].appl 	receivedBSMs 	0
scalar MyScenario.node[146].appl 	generatedWSAs 	0
scalar MyScenario.node[146].appl 	receivedWSAs 	0
scalar MyScenario.node[146].nic.phy80211p 	busyTime 	0
scalar MyScenario.node[146].nic.mac1609_4 	ReceivedUnicastPackets 	0
scalar MyScenario.node[146].nic.mac1609_4 	ReceivedBroadcasts 	0
scalar MyScenario.node[146].nic.mac1609_4 	SentPackets 	0
scalar MyScenario.node[146].nic.mac1609_4 	SNIRLostPackets 	0
scalar MyScenario.node[146].nic.mac1609_4 	RXTXLostPackets 	0
scalar MyScenario.node[146].nic.mac1609_4 	TotalLostPackets 	0
scalar MyScenario.node[146].nic.mac1609_4 	DroppedPacketsInMac 	0
scalar MyScenario.node[146].nic.mac1609_4 	TooLittleTime 	0
scalar MyScenario.node[146].nic.mac1609_4 	TimesIntoBackoff 	0
scalar MyScenario.node[146].nic.mac1609_4 	SlotsBackoff 	0
scalar MyScenario.node[146].nic.mac1609_4 	NumInternalContention 	0
scalar MyScenario.node[146].nic.mac1609_4 	totalBusyTime 	0
scalar MyScenario.node[146].veinsmobility 	startTime 	1
scalar MyScenario.node[146].veinsmobility 	totalTime 	9
scalar MyScenario.node[146].veinsmobility 	stopTime 	11
scalar MyScenario.node[146].veinsmobility 	minSpeed 	2.191703762929
scalar MyScenario.node[146].veinsmobility 	maxSpeed 	13.688256499777
scalar MyScenario.node[146].veinsmobility 	totalDistance 	82.128227647743
scalar MyScenario.node[146].veinsmobility 	totalCO2Emission 	38.114346982966
scalar MyScenario.node[56].appl 	generatedWSMs 	0
scalar MyScenario.node[56].appl 	receivedWSMs 	0
scalar MyScenario.node[56].appl 	generatedBSMs 	0
scalar MyScenario.node[56].appl 	receivedBSMs 	0
scalar MyScenario.node[56].appl 	generatedWSAs 	0
scalar MyScenario.node[56].appl 	receivedWSAs 	0
scalar MyScenario.node[56].nic.phy80211p 	busyTime 	0.000232
scalar MyScenario.node[56].nic.mac1609_4 	ReceivedUnicastPackets 	0
scalar MyScenario.node[56].nic.mac1609_4 	ReceivedBroadcasts 	0
scalar MyScenario.node[56].nic.mac1609_4 	SentPackets 	0
scalar MyScenario.node[56].nic.mac1609_4 	SNIRLostPackets 	10
scalar MyScenario.node[56].nic.mac1609_4 	RXTXLostPackets 	0
scalar MyScenario.node[56].nic.mac1609_4 	TotalLostPackets 	10
scalar MyScenario.node[56].nic.mac1609_4 	DroppedPacketsInMac 	0
scalar MyScenario.node[56].nic.mac1609_4 	TooLittleTime 	0
scalar MyScenario.node[56].nic.mac1609_4 	TimesIntoBackoff 	0
scalar MyScenario.node[56].nic.mac1609_4 	SlotsBackoff 	0
scalar MyScenario.node[56].nic.mac1609_4 	NumInternalContention 	0
scalar MyScenario.node[56].nic.mac1609_4 	totalBusyTime 	0.000696
scalar MyScenario.node[56].veinsmobility 	startTime 	1
scalar MyScenario.node[56].veinsmobility 	totalTime 	9
scalar MyScenario.node[56].veinsmobility 	stopTime 	11
scalar MyScenario.node[56].veinsmobility 	minSpeed 	1.895625348296
scalar MyScenario.node[56].veinsmobility 	maxSpeed 	13.488735131151
scalar MyScenario.node[56].veinsmobility 	totalDistance 	79.456849368161
scalar MyScenario.node[56].veinsmobility 	totalCO2Emission 	36.757384719399
scalar MyScenario.node[70].appl 	generatedWSMs 	0
scalar MyScenario.node[70].appl 	receivedWSMs 	0
scalar MyScenario.node[70].appl 	generatedBSMs 	0
scalar MyScenario.node[70].appl 	receivedBSMs 	0
scalar MyScenario.node[70].appl 	generatedWSAs 	0
scalar MyScenario.node[70].appl 	receivedWSAs 	0
scalar MyScenario.node[70].nic.phy80211p 	busyTime 	0.0004176
scalar MyScenario.node[70].nic.mac1609_4 	ReceivedUnicastPackets 	0
scalar MyScenario.node[70].nic.mac1609_4 	ReceivedBroadcasts 	0
scalar MyScenario.node[70].nic.mac1609_4 	SentPackets 	0
scalar MyScenario.node[70].nic.mac1609_4 	SNIRLostPackets 	18
scalar MyScenario.node[70].nic.mac1609_4 	RXTXLostPackets 	0
scalar MyScenario.node[70].nic.mac1609_4 	TotalLostPackets 	18
scalar MyScenario.node[70].nic.mac1609_4 	DroppedPacketsInMac 	0
scalar MyScenario.node[70].nic.mac1609_4 	TooLittleTime 	0
scalar MyScenario.node[70].nic.mac1609_4 	TimesIntoBackoff 	0
scalar MyScenario.node[70].nic.mac1609_4 	SlotsBackoff 	0
scalar MyScenario.node[70].nic.mac1609_4 	NumInternalContention 	0
scalar MyScenario.node[70].nic.mac1609_4 	totalBusyTime 	0.001392
scalar MyScenario.node[70].veinsmobility 	startTime 	1
scalar MyScenario.node[70].veinsmobility 	totalTime 	9
scalar MyScenario.node[70].veinsmobility 	stopTime 	11
scalar MyScenario.node[70].veinsmobility 	minSpeed 	1.3436576552223
scalar MyScenario.node[70].veinsmobility 	maxSpeed 	13.81360393276
scalar MyScenario.node[70].veinsmobility 	totalDistance 	77.027229981427
scalar MyScenario.node[70].veinsmobility 	totalCO2Emission 	38.961819054761
scalar MyScenario.node[184].appl 	generatedWSMs 	0
scalar MyScenario.node[184].appl 	receivedWSMs 	0
scalar MyScenario.node[184].appl 	generatedBSMs 	0
scalar MyScenario.node[184].appl 	receivedBSMs 	0
scalar MyScenario.node[184].appl 	generatedWSAs 	0
scalar MyScenario.node[184].appl 	receivedWSAs 	0
scalar MyScenario.node[184].nic.phy80211p 	busyTime 	4.2181818181818e-05
scalar MyScenario.node[184].nic.mac1609_4 	ReceivedUnicastPackets 	0
scalar MyScenario.node[184].nic.mac1609_4 	ReceivedBroadcasts 	0
scalar MyScenario.node[184].nic.mac1609_4 	SentPackets 	0
scalar MyScenario.node[184].nic.mac1609_4 	SNIRLostPackets 	2
scalar MyScenario.node[184].nic.mac1609_4 	RXTXLostPackets 	0
scalar MyScenario.node[184].nic.mac1609_4 	TotalLostPackets 	2
scalar MyScenario.node[184].nic.mac1609_4 	DroppedPacketsInMac 	0
scalar MyScenario.node[184].nic.mac1609_4 	TooLittleTime 	0
scalar MyScenario.node[184].nic.mac1609_4 	TimesIntoBackoff 	0
scalar MyScenario.node[184].nic.mac1609_4 	SlotsBackoff 	0
scalar MyScenario.node[184].nic.mac1609_4 	NumInternalContention 	0
scalar MyScenario.node[184].nic.mac1609_4 	totalBusyTime 	0.000232
scalar MyScenario.node[184].veinsmobility 	startTime 	1
scalar MyScenario.node[184].veinsmobility 	totalTime 	10
scalar MyScenario.node[184].veinsmobility 	stopTime 	12
scalar MyScenario.node[184].veinsmobility 	minSpeed 	1.8103619771078
scalar MyScenario.node[184].veinsmobility 	maxSpeed 	13.840309718903
scalar MyScenario.node[184].veinsmobility 	totalDistance 	93.790174657865
scalar MyScenario.node[184].veinsmobility 	totalCO2Emission 	38.591725475989
scalar MyScenario.node[126].appl 	generatedWSMs 	0
scalar MyScenario.node[126].appl 	receivedWSMs 	0
scalar MyScenario.node[126].appl 	generatedBSMs 	0
scalar MyScenario.node[126].appl 	receivedBSMs 	0
scalar MyScenario.node[126].appl 	generatedWSAs 	0
scalar MyScenario.node[126].appl 	receivedWSAs 	0
scalar MyScenario.node[126].nic.phy80211p 	busyTime 	6.3272727272727e-05
scalar MyScenario.node[126].nic.mac1609_4 	ReceivedUnicastPackets 	0
scalar MyScenario.node[126].nic.mac1609_4 	ReceivedBroadcasts 	0
scalar MyScenario.node[126].nic.mac1609_4 	SentPackets 	0
scalar MyScenario.node[126].nic.mac1609_4 	SNIRLostPackets 	3
scalar MyScenario.node[126].nic.mac1609_4 	RXTXLostPackets 	0
scalar MyScenario.node[126].nic.mac1609_4 	TotalLostPackets 	3
scalar MyScenario.node[126].nic.mac1609_4 	DroppedPacketsInMac 	0
scalar MyScenario.node[126].nic.mac1609_4 	TooLittleTime 	0
scalar MyScenario.node[126].nic.mac1609_4 	TimesIntoBackoff 	0
scalar MyScenario.node[126].nic.mac1609_4 	SlotsBackoff 	0
scalar MyScenario.node[126].nic.mac1609_4 	NumInternalContention 	0
scalar MyScenario.node[126].nic.mac1609_4 	totalBusyTime 	0.000232
scalar MyScenario.node[126].veinsmobility 	startTime 	1
scalar MyScenario.node[126].veinsmobility 	totalTime 	10
scalar MyScenario.node[126].veinsmobility 	stopTime 	12
scalar MyScenario.node[126].veinsmobility 	minSpeed 	2.4016455723206
scalar MyScenario.node[126].veinsmobility 	maxSpeed 	13.570717153256
scalar MyScenario.node[126].veinsmobility 	totalDistance 	92.561995746088
scalar MyScenario.node[126].veinsmobility 	totalCO2Emission 	38.703841802078
scalar MyScenario.node[13].appl 	generatedWSMs 	0
scalar MyScenario.node[13].appl 	receivedWSMs 	0
scalar MyScenario.node[13].appl 	generatedBSMs 	0
scalar MyScenario.node[13].appl 	receivedBSMs 	0
scalar MyScenario.node[13].appl 	generatedWSAs 	0
scalar MyScenario.node[13].appl 	receivedWSAs 	0
scalar MyScenario.node[13].nic.phy80211p 	busyTime 	0
scalar MyScenario.node[13].nic.mac1609_4 	ReceivedUnicastPackets 	0
scalar MyScenario.node[13].nic.mac1609_4 	ReceivedBroadcasts 	0
scalar MyScenario.node[13].nic.mac1609_4 	SentPackets 	0
scalar MyScenario.node[13].nic.mac1609_4 	SNIRLostPackets 	0
scalar MyScenario.node[13].nic.mac1609_4 	RXTXLostPackets 	0
scalar MyScenario.node[13].nic.mac1609_4 	TotalLostPackets 	0
scalar MyScenario.node[13].nic.mac1609_4 	DroppedPacketsInMac 	0
scalar MyScenario.node[13].nic.mac1609_4 	TooLittleTime 	0
scalar MyScenario.node[13].nic.mac1609_4 	TimesIntoBackoff 	0
scalar MyScenario.node[13].nic.mac1609_4 	SlotsBackoff 	0
scalar MyScenario.node[13].nic.mac1609_4 	NumInternalContention 	0
scalar MyScenario.node[13].nic.mac1609_4 	totalBusyTime 	0
scalar MyScenario.node[13].veinsmobility 	startTime 	1
scalar MyScenario.node[13].veinsmobility 	totalTime 	10
scalar MyScenario.node[13].veinsmobility 	stopTime 	12
scalar MyScenario.node[13].veinsmobility 	minSpeed 	1.9294944665395
scalar MyScenario.node[13].veinsmobility 	maxSpeed 	13.386456530006
scalar MyScenario.node[13].veinsmobility 	totalDistance 	87.539275069548
scalar MyScenario.node[13].veinsmobility 	totalCO2Emission 	39.013997987952
scalar MyScenario.node[254].appl 	generatedWSMs 	1
scalar MyScenario.node[254].appl 	receivedWSMs 	1
scalar MyScenario.node[254].appl 	generatedBSMs 	0
scalar MyScenario.node[254].appl 	receivedBSMs 	0
scalar MyScenario.node[254].appl 	generatedWSAs 	0
scalar MyScenario.node[254].appl 	receivedWSAs 	0
scalar MyScenario.node[254].nic.phy80211p 	busyTime 	0.00014763636363636
scalar MyScenario.node[254].nic.mac1609_4 	ReceivedUnicastPackets 	0
scalar MyScenario.node[254].nic.mac1609_4 	ReceivedBroadcasts 	1
scalar MyScenario.node[254].nic.mac1609_4 	SentPackets 	1
scalar MyScenario.node[254].nic.mac1609_4 	SNIRLostPackets 	6
scalar MyScenario.node[254].nic.mac1609_4 	RXTXLostPackets 	7
scalar MyScenario.node[254].nic.mac1609_4 	TotalLostPackets 	13
scalar MyScenario.node[254].nic.mac1609_4 	DroppedPacketsInMac 	0
scalar MyScenario.node[254].nic.mac1609_4 	TooLittleTime 	0
scalar MyScenario.node[254].nic.mac1609_4 	TimesIntoBackoff 	1
scalar MyScenario.node[254].nic.mac1609_4 	SlotsBackoff 	2
scalar MyScenario.node[254].nic.mac1609_4 	NumInternalContention 	0
scalar MyScenario.node[254].nic.mac1609_4 	totalBusyTime 	0.000929000109
scalar MyScenario.node[254].veinsmobility 	startTime 	4
scalar MyScenario.node[254].veinsmobility 	totalTime 	10
scalar MyScenario.node[254].veinsmobility 	stopTime 	15
scalar MyScenario.node[254].veinsmobility 	minSpeed 	1.827349176188
scalar MyScenario.node[254].veinsmobility 	maxSpeed 	13.142322274251
scalar MyScenario.node[254].veinsmobility 	totalDistance 	89.993142483913
scalar MyScenario.node[254].veinsmobility 	totalCO2Emission 	38.145732901441
scalar MyScenario.node[0].appl 	generatedWSMs 	6
scalar MyScenario.node[0].appl 	receivedWSMs 	2
scalar MyScenario.node[0].appl 	generatedBSMs 	0
scalar MyScenario.node[0].appl 	receivedBSMs 	0
scalar MyScenario.node[0].appl 	generatedWSAs 	0
scalar MyScenario.node[0].appl 	receivedWSAs 	0
scalar MyScenario.node[0].nic.phy80211p 	busyTime 	0.000348
scalar MyScenario.node[0].nic.mac1609_4 	ReceivedUnicastPackets 	0
scalar MyScenario.node[0].nic.mac1609_4 	ReceivedBroadcasts 	2
scalar MyScenario.node[0].nic.mac1609_4 	SentPackets 	6
scalar MyScenario.node[0].nic.mac1609_4 	SNIRLostPackets 	25
scalar MyScenario.node[0].nic.mac1609_4 	RXTXLostPackets 	0
scalar MyScenario.node[0].nic.mac1609_4 	TotalLostPackets 	25
scalar MyScenario.node[0].nic.mac1609_4 	DroppedPacketsInMac 	0
scalar MyScenario.node[0].nic.mac1609_4 	TooLittleTime 	0
scalar MyScenario.node[0].nic.mac1609_4 	TimesIntoBackoff 	6
scalar MyScenario.node[0].nic.mac1609_4 	SlotsBackoff 	6
scalar MyScenario.node[0].nic.mac1609_4 	NumInternalContention 	0
scalar MyScenario.node[0].nic.mac1609_4 	totalBusyTime 	0.00232603903
scalar MyScenario.node[0].veinsmobility 	startTime 	1
scalar MyScenario.node[0].veinsmobility 	totalTime 	17
scalar MyScenario.node[0].veinsmobility 	stopTime 	19
scalar MyScenario.node[0].veinsmobility 	minSpeed 	1.5549903644249
scalar MyScenario.node[0].veinsmobility 	maxSpeed 	13.805922388867
scalar MyScenario.node[0].veinsmobility 	totalDistance 	180.61372291327
scalar MyScenario.node[0].veinsmobility 	totalCO2Emission 	54.666982069198
scalar MyScenario.node[232].appl 	generatedWSMs 	0
scalar MyScenario.node[232].appl 	receivedWSMs 	0
scalar MyScenario.node[232].appl 	generatedBSMs 	0
scalar MyScenario.node[232].appl 	receivedBSMs 	0
scalar MyScenario.node[232].appl 	generatedWSAs 	0
scalar MyScenario.node[232].appl 	receivedWSAs 	0
scalar MyScenario.node[232].nic.phy80211p 	busyTime 	0
scalar MyScenario.node[232].nic.mac1609_4 	ReceivedUnicastPackets 	0
scalar MyScenario.node[232].nic.mac1609_4 	ReceivedBroadcasts 	0
scalar MyScenario.node[232].nic.mac1609_4 	SentPackets 	0
scalar MyScenario.node[232].nic.mac1609_4 	SNIRLostPackets 	0
scalar MyScenario.node[232].nic.mac1609_4 	RXTXLostPackets 	0
scalar MyScenario.node[232].nic.mac1609_4 	TotalLostPackets 	0
scalar MyScenario.node[232].nic.mac1609_4 	DroppedPacketsInMac 	0
scalar MyScenario.node[232].nic.mac1609_4 	TooLittleTime 	0
scalar MyScenario.node[232].nic.mac1609_4 	TimesIntoBackoff 	0
scalar MyScenario.node[232].nic.mac1609_4 	SlotsBackoff 	0
scalar MyScenario.node[232].nic.mac1609_4 	NumInternalContention 	0
scalar MyScenario.node[232].nic.mac1609_4 	totalBusyTime 	0
scalar MyScenario.node[232].veinsmobility 	startTime 	4
scalar MyScenario.node[232].veinsmobility 	totalTime 	16
scalar MyScenario.node[232].veinsmobility 	stopTime 	21
scalar MyScenario.node[232].veinsmobility 	minSpeed 	1.6607068258571
scalar MyScenario.node[232].veinsmobility 	maxSpeed 	13.825184447877
scalar MyScenario.node[232].veinsmobility 	totalDistance 	172.69274231241
scalar MyScenario.node[232].veinsmobility 	totalCO2Emission 	53.578341285745
scalar MyScenario.node[271].appl 	generatedWSMs 	0
scalar MyScenario.node[271].appl 	receivedWSMs 	0
scalar MyScenario.node[271].appl 	generatedBSMs 	0
scalar MyScenario.node[271].appl 	receivedBSMs 	0
scalar MyScenario.node[271].appl 	generatedWSAs 	0
scalar MyScenario.node[271].appl 	receivedWSAs 	0
scalar MyScenario.node[271].nic.phy80211p 	busyTime 	4.8842105263158e-05
scalar MyScenario.node[271].nic.mac1609_4 	ReceivedUnicastPackets 	0
scalar MyScenario.node[271].nic.mac1609_4 	ReceivedBroadcasts 	0
scalar MyScenario.node[271].nic.mac1609_4 	SentPackets 	0
scalar MyScenario.node[271].nic.mac1609_4 	SNIRLostPackets 	4
scalar MyScenario.node[271].nic.mac1609_4 	RXTXLostPackets 	0
scalar MyScenario.node[271].nic.mac1609_4 	TotalLostPackets 	4
scalar MyScenario.node[271].nic.mac1609_4 	DroppedPacketsInMac 	0
scalar MyScenario.node[271].nic.mac1609_4 	TooLittleTime 	0
scalar MyScenario.node[271].nic.mac1609_4 	TimesIntoBackoff 	0
scalar MyScenario.node[271].nic.mac1609_4 	SlotsBackoff 	0
scalar MyScenario.node[271].nic.mac1609_4 	NumInternalContention 	0
scalar MyScenario.node[271].nic.mac1609_4 	totalBusyTime 	0.000232
scalar MyScenario.node[271].veinsmobility 	startTime 	4
scalar MyScenario.node[271].veinsmobility 	totalTime 	18
scalar MyScenario.node[271].veinsmobility 	stopTime 	23
scalar MyScenario.node[271].veinsmobility 	minSpeed 	1.7844246175839
scalar MyScenario.node[271].veinsmobility 	maxSpeed 	13.807067019586
scalar MyScenario.node[271].veinsmobility 	totalDistance 	180.26639831154
scalar MyScenario.node[271].veinsmobility 	totalCO2Emission 	71.305857980597
scalar MyScenario.node[104].appl 	generatedWSMs 	0
scalar MyScenario.node[104].appl 	receivedWSMs 	0
scalar MyScenario.node[104].appl 	generatedBSMs 	0
scalar MyScenario.node[104].appl 	receivedBSMs 	0
scalar MyScenario.node[104].appl 	generatedWSAs 	0
scalar MyScenario.node[104].appl 	receivedWSAs 	0
scalar MyScenario.node[104].nic.phy80211p 	busyTime 	0
scalar MyScenario.node[104].nic.mac1609_4 	ReceivedUnicastPackets 	0
scalar MyScenario.node[104].nic.mac1609_4 	ReceivedBroadcasts 	0
scalar MyScenario.node[104].nic.mac1609_4 	SentPackets 	0
scalar MyScenario.node[104].nic.mac1609_4 	SNIRLostPackets 	0
scalar MyScenario.node[104].nic.mac1609_4 	RXTXLostPackets 	0
scalar MyScenario.node[104].nic.mac1609_4 	TotalLostPackets 	0
scalar MyScenario.node[104].nic.mac1609_4 	DroppedPacketsInMac 	0
scalar MyScenario.node[104].nic.mac1609_4 	TooLittleTime 	0
scalar MyScenario.node[104].nic.mac1609_4 	TimesIntoBackoff 	0
scalar MyScenario.node[104].nic.mac1609_4 	SlotsBackoff 	0
scalar MyScenario.node[104].nic.mac1609_4 	NumInternalContention 	0
scalar MyScenario.node[104].nic.mac1609_4 	totalBusyTime 	0
scalar MyScenario.node[104].veinsmobility 	startTime 	1
scalar MyScenario.node[104].veinsmobility 	totalTime 	25
scalar MyScenario.node[104].veinsmobility 	stopTime 	27
scalar MyScenario.node[104].veinsmobility 	minSpeed 	2.2949710523244
scalar MyScenario.node[104].veinsmobility 	maxSpeed 	13.875431536674
scalar MyScenario.node[104].veinsmobility 	totalDistance 	266.56242146694
scalar MyScenario.node[104].veinsmobility 	totalCO2Emission 	92.563812115156
scalar MyScenario.node[142].appl 	generatedWSMs 	0
scalar MyScenario.node[142].appl 	receivedWSMs 	0
scalar MyScenario.node[142].appl 	generatedBSMs 	0
scalar MyScenario.node[142].appl 	receivedBSMs 	0
scalar MyScenario.node[142].appl 	generatedWSAs 	0
scalar MyScenario.node[142].appl 	receivedWSAs 	0
scalar MyScenario.node[142].nic.phy80211p 	busyTime 	8.5925925925926e-06
scalar MyScenario.node[142].nic.mac1609_4 	ReceivedUnicastPackets 	0
scalar MyScenario.node[142].nic.mac1609_4 	ReceivedBroadcasts 	0
scalar MyScenario.node[142].nic.mac1609_4 	SentPackets 	0
scalar MyScenario.node[142].nic.mac1609_4 	SNIRLostPackets 	1
scalar MyScenario.node[142].nic.mac1609_4 	RXTXLostPackets 	0
scalar MyScenario.node[142].nic.mac1609_4 	TotalLostPackets 	1
scalar MyScenario.node[142].nic.mac1609_4 	DroppedPacketsInMac 	0
scalar MyScenario.node[142].nic.mac1609_4 	TooLittleTime 	0
scalar MyScenario.node[142].nic.mac1609_4 	TimesIntoBackoff 	0
scalar MyScenario.node[142].nic.mac1609_4 	SlotsBackoff 	0
scalar MyScenario.node[142].nic.mac1609_4 	NumInternalContention 	0
scalar MyScenario.node[142].nic.mac1609_4 	totalBusyTime 	0.000232
scalar MyScenario.node[142].veinsmobility 	startTime 	1
scalar MyScenario.node[142].veinsmobility 	totalTime 	26
scalar MyScenario.node[142].veinsmobility 	stopTime 	28
scalar MyScenario.node[142].veinsmobility 	minSpeed 	0.00012482401797208
scalar MyScenario.node[142].veinsmobility 	maxSpeed 	13.616584589821
scalar MyScenario.node[142].veinsmobility 	totalDistance 	173.98112398892
scalar MyScenario.node[142].veinsmobility 	totalCO2Emission 	63.858854509427
scalar MyScenario.node[148].appl 	generatedWSMs 	1
scalar MyScenario.node[148].appl 	receivedWSMs 	1
scalar MyScenario.node[148].appl 	generatedBSMs 	0
scalar MyScenario.node[148].appl 	receivedBSMs 	0
scalar MyScenario.node[148].appl 	generatedWSAs 	0
scalar MyScenario.node[148].appl 	receivedWSAs 	0
scalar MyScenario.node[148].nic.phy80211p 	busyTime 	5.8e-05
scalar MyScenario.node[148].nic.mac1609_4 	ReceivedUnicastPackets 	0
scalar MyScenario.node[148].nic.mac1609_4 	ReceivedBroadcasts 	1
scalar MyScenario.node[148].nic.mac1609_4 	SentPackets 	1
scalar MyScenario.node[148].nic.mac1609_4 	SNIRLostPackets 	6
scalar MyScenario.node[148].nic.mac1609_4 	RXTXLostPackets 	8
scalar MyScenario.node[148].nic.mac1609_4 	TotalLostPackets 	14
scalar MyScenario.node[148].nic.mac1609_4 	DroppedPacketsInMac 	0
scalar MyScenario.node[148].nic.mac1609_4 	TooLittleTime 	0
scalar MyScenario.node[148].nic.mac1609_4 	TimesIntoBackoff 	1
scalar MyScenario.node[148].nic.mac1609_4 	SlotsBackoff 	0
scalar MyScenario.node[148].nic.mac1609_4 	NumInternalContention 	0
scalar MyScenario.node[148].nic.mac1609_4 	totalBusyTime 	0.000929025913
scalar MyScenario.node[148].veinsmobility 	startTime 	1
scalar MyScenario.node[148].veinsmobility 	totalTime 	27
scalar MyScenario.node[148].veinsmobility 	stopTime 	29
scalar MyScenario.node[148].veinsmobility 	minSpeed 	2.1791229051771
scalar MyScenario.node[148].veinsmobility 	maxSpeed 	13.754914255813
scalar MyScenario.node[148].veinsmobility 	totalDistance 	277.29140399237
scalar MyScenario.node[148].veinsmobility 	totalCO2Emission 	103.1605222037
scalar MyScenario.node[219].appl 	generatedWSMs 	1
scalar MyScenario.node[219].appl 	receivedWSMs 	7
scalar MyScenario.node[219].appl 	generatedBSMs 	0
scalar MyScenario.node[219].appl 	receivedBSMs 	0
scalar MyScenario.node[219].appl 	generatedWSAs 	0
scalar MyScenario.node[219].appl 	receivedWSAs 	0
scalar MyScenario.node[219].nic.phy80211p 	busyTime 	0.00016953846153846
scalar MyScenario.node[219].nic.mac1609_4 	ReceivedUnicastPackets 	0
scalar MyScenario.node[219].nic.mac1609_4 	ReceivedBroadcasts 	7
scalar MyScenario.node[219].nic.mac1609_4 	SentPackets 	1
scalar MyScenario.node[219].nic.mac1609_4 	SNIRLostPackets 	12
scalar MyScenario.node[219].nic.mac1609_4 	RXTXLostPackets 	2
scalar MyScenario.node[219].nic.mac1609_4 	TotalLostPackets 	14
scalar MyScenario.node[219].nic.mac1609_4 	DroppedPacketsInMac 	0
scalar MyScenario.node[219].nic.mac1609_4 	TooLittleTime 	0
scalar MyScenario.node[219].nic.mac1609_4 	TimesIntoBackoff 	1
scalar MyScenario.node[219].nic.mac1609_4 	SlotsBackoff 	3
scalar MyScenario.node[219].nic.mac1609_4 	NumInternalContention 	0
scalar MyScenario.node[219].nic.mac1609_4 	totalBusyTime 	0.002321133115
scalar MyScenario.node[219].veinsmobility 	startTime 	4
scalar MyScenario.node[219].veinsmobility 	totalTime 	25
scalar MyScenario.node[219].veinsmobility 	stopTime 	30
scalar MyScenario.node[219].veinsmobility 	minSpeed 	2.1778354622424
scalar MyScenario.node[219].veinsmobility 	maxSpeed 	13.887798797805
scalar MyScenario.node[219].veinsmobility 	totalDistance 	273.29056746775
scalar MyScenario.node[219].veinsmobility 	totalCO2Emission 	80.53688799904
scalar MyScenario.node[22].appl 	generatedWSMs 	1
scalar MyScenario.node[22].appl 	receivedWSMs 	3
scalar MyScenario.node[22].appl 	generatedBSMs 	0
scalar MyScenario.node[22].appl 	receivedBSMs 	0
scalar MyScenario.node[22].appl 	generatedWSAs 	0
scalar MyScenario.node[22].appl 	receivedWSAs 	0
scalar MyScenario.node[22].nic.phy80211p 	busyTime 	8.9806451612903e-05
scalar MyScenario.node[22].nic.mac1609_4 	ReceivedUnicastPackets 	0
scalar MyScenario.node[22].nic.mac1609_4 	ReceivedBroadcasts 	3
scalar MyScenario.node[22].nic.mac1609_4 	SentPackets 	1
scalar MyScenario.node[22].nic.mac1609_4 	SNIRLostPackets 	9
scalar MyScenario.node[22].nic.mac1609_4 	RXTXLostPackets 	4
scalar MyScenario.node[22].nic.mac1609_4 	TotalLostPackets 	13
scalar MyScenario.node[22].nic.mac1609_4 	DroppedPacketsInMac 	0
scalar MyScenario.node[22].nic.mac1609_4 	TooLittleTime 	0
scalar MyScenario.node[22].nic.mac1609_4 	TimesIntoBackoff 	1
scalar MyScenario.node[22].nic.mac1609_4 	SlotsBackoff 	1
scalar MyScenario.node[22].nic.mac1609_4 	NumInternalContention 	0
scalar MyScenario.node[22].nic.mac1609_4 	totalBusyTime 	0.001393010121
scalar MyScenario.node[22].veinsmobility 	startTime 	1
scalar MyScenario.node[22].veinsmobility 	totalTime 	30
scalar MyScenario.node[22].veinsmobility 	stopTime 	32
scalar MyScenario.node[22].veinsmobility 	minSpeed 	2.0269562682835
scalar MyScenario.node[22].veinsmobility 	maxSpeed 	13.800495664473
scalar MyScenario.node[22].veinsmobility 	totalDistance 	358.14980700008
scalar MyScenario.node[22].veinsmobility 	totalCO2Emission 	82.728550388445
scalar MyScenario.node[19].appl 	generatedWSMs 	0
scalar MyScenario.node[19].appl 	receivedWSMs 	0
scalar MyScenario.node[19].appl 	generatedBSMs 	0
scalar MyScenario.node[19].appl 	receivedBSMs 	0
scalar MyScenario.node[19].appl 	generatedWSAs 	0
scalar MyScenario.node[19].appl 	receivedWSAs 	0
scalar MyScenario.node[19].nic.phy80211p 	busyTime 	0
scalar MyScenario.node[19].nic.mac1609_4 	ReceivedUnicastPackets 	0
scalar MyScenario.node[19].nic.mac1609_4 	ReceivedBroadcasts 	0
scalar MyScenario.node[19].nic.mac1609_4 	SentPackets 	0
scalar MyScenario.node[19].nic.mac1609_4 	SNIRLostPackets 	0
scalar MyScenario.node[19].nic.mac1609_4 	RXTXLostPackets 	0
scalar MyScenario.node[19].nic.mac1609_4 	TotalLostPackets 	0
scalar MyScenario.node[19].nic.mac1609_4 	DroppedPacketsInMac 	0
scalar MyScenario.node[19].nic.mac1609_4 	TooLittleTime 	0
scalar MyScenario.node[19].nic.mac1609_4 	TimesIntoBackoff 	0
scalar MyScenario.node[19].nic.mac1609_4 	SlotsBackoff 	0
scalar MyScenario.node[19].nic.mac1609_4 	NumInternalContention 	0
scalar MyScenario.node[19].nic.mac1609_4 	totalBusyTime 	0
scalar MyScenario.node[19].veinsmobility 	startTime 	1
scalar MyScenario.node[19].veinsmobility 	totalTime 	31
scalar MyScenario.node[19].veinsmobility 	stopTime 	33
scalar MyScenario.node[19].veinsmobility 	minSpeed 	0.7148742183805
scalar MyScenario.node[19].veinsmobility 	maxSpeed 	13.574719485408
scalar MyScenario.node[19].veinsmobility 	totalDistance 	280.04703750128
scalar MyScenario.node[19].veinsmobility 	totalCO2Emission 	109.165858747
scalar MyScenario.node[300].appl 	generatedWSMs 	0
scalar MyScenario.node[300].appl 	receivedWSMs 	0
scalar MyScenario.node[300].appl 	generatedBSMs 	0
scalar MyScenario.node[300].appl 	receivedBSMs 	0
scalar MyScenario.node[300].appl 	generatedWSAs 	0
scalar MyScenario.node[300].appl 	receivedWSAs 	0
scalar MyScenario.node[300].nic.phy80211p 	busyTime 	0
scalar MyScenario.node[300].nic.mac1609_4 	ReceivedUnicastPackets 	0
scalar MyScenario.node[300].nic.mac1609_4 	ReceivedBroadcasts 	0
scalar MyScenario.node[300].nic.mac1609_4 	SentPackets 	0
scalar MyScenario.node[300].nic.mac1609_4 	SNIRLostPackets 	0
scalar MyScenario.node[300].nic.mac1609_4 	RXTXLostPackets 	0
scalar MyScenario.node[300].nic.mac1609_4 	TotalLostPackets 	0
scalar MyScenario.node[300].nic.mac1609_4 	DroppedPacketsInMac 	0
scalar MyScenario.node[300].nic.mac1609_4 	TooLittleTime 	0
scalar MyScenario.node[300].nic.mac1609_4 	TimesIntoBackoff 	0
scalar MyScenario.node[300].nic.mac1609_4 	SlotsBackoff 	0
scalar MyScenario.node[300].nic.mac1609_4 	NumInternalContention 	0
scalar MyScenario.node[300].nic.mac1609_4 	totalBusyTime 	0
scalar MyScenario.node[300].veinsmobility 	startTime 	12
scalar MyScenario.node[300].veinsmobility 	totalTime 	21
scalar MyScenario.node[300].veinsmobility 	stopTime 	34
scalar MyScenario.node[300].veinsmobility 	minSpeed 	11.117267640593
scalar MyScenario.node[300].veinsmobility 	maxSpeed 	13.553639710182
scalar MyScenario.node[300].veinsmobility 	totalDistance 	267.30355675395
scalar MyScenario.node[300].veinsmobility 	totalCO2Emission 	50.277175133532
scalar MyScenario.node[28].appl 	generatedWSMs 	0
scalar MyScenario.node[28].appl 	receivedWSMs 	0
scalar MyScenario.node[28].appl 	generatedBSMs 	0
scalar MyScenario.node[28].appl 	receivedBSMs 	0
scalar MyScenario.node[28].appl 	generatedWSAs 	0
scalar MyScenario.node[28].appl 	receivedWSAs 	0
scalar MyScenario.node[28].nic.phy80211p 	busyTime 	5.6242424242424e-05
scalar MyScenario.node[28].nic.mac1609_4 	ReceivedUnicastPackets 	0
scalar MyScenario.node[28].nic.mac1609_4 	ReceivedBroadcasts 	0
scalar MyScenario.node[28].nic.mac1609_4 	SentPackets 	0
scalar MyScenario.node[28].nic.mac1609_4 	SNIRLostPackets 	8
scalar MyScenario.node[28].nic.mac1609_4 	RXTXLostPackets 	0
scalar MyScenario.node[28].nic.mac1609_4 	TotalLostPackets 	8
scalar MyScenario.node[28].nic.mac1609_4 	DroppedPacketsInMac 	0
scalar MyScenario.node[28].nic.mac1609_4 	TooLittleTime 	0
scalar MyScenario.node[28].nic.mac1609_4 	TimesIntoBackoff 	0
scalar MyScenario.node[28].nic.mac1609_4 	SlotsBackoff 	0
scalar MyScenario.node[28].nic.mac1609_4 	NumInternalContention 	0
scalar MyScenario.node[28].nic.mac1609_4 	totalBusyTime 	0.000464002843
scalar MyScenario.node[28].veinsmobility 	startTime 	1
scalar MyScenario.node[28].veinsmobility 	totalTime 	32
scalar MyScenario.node[28].veinsmobility 	stopTime 	34
scalar MyScenario.node[28].veinsmobility 	minSpeed 	1.4373334821779
scalar MyScenario.node[28].veinsmobility 	maxSpeed 	13.844497000542
scalar MyScenario.node[28].veinsmobility 	totalDistance 	379.7826803142
scalar MyScenario.node[28].veinsmobility 	totalCO2Emission 	91.514153328066
scalar MyScenario.node[197].appl 	generatedWSMs 	1
scalar MyScenario.node[197].appl 	receivedWSMs 	1
scalar MyScenario.node[197].appl 	generatedBSMs 	0
scalar MyScenario.node[197].appl 	receivedBSMs 	0
scalar MyScenario.node[197].appl 	generatedWSAs 	0
scalar MyScenario.node[197].appl 	receivedWSAs 	0
scalar MyScenario.node[197].nic.phy80211p 	busyTime 	6.8235294117647e-06
scalar MyScenario.node[197].nic.mac1609_4 	ReceivedUnicastPackets 	0
scalar MyScenario.node[197].nic.mac1609_4 	ReceivedBroadcasts 	1
scalar MyScenario.node[197].nic.mac1609_4 	SentPackets 	1
scalar MyScenario.node[197].nic.mac1609_4 	SNIRLostPackets 	0
scalar MyScenario.node[197].nic.mac1609_4 	RXTXLostPackets 	6
scalar MyScenario.node[197].nic.mac1609_4 	TotalLostPackets 	6
scalar MyScenario.node[197].nic.mac1609_4 	DroppedPacketsInMac 	0
scalar MyScenario.node[197].nic.mac1609_4 	TooLittleTime 	0
scalar MyScenario.node[197].nic.mac1609_4 	TimesIntoBackoff 	1
scalar MyScenario.node[197].nic.mac1609_4 	SlotsBackoff 	1
scalar MyScenario.node[197].nic.mac1609_4 	NumInternalContention 	0
scalar MyScenario.node[197].nic.mac1609_4 	totalBusyTime 	0.000465
scalar MyScenario.node[197].veinsmobility 	startTime 	1
scalar MyScenario.node[197].veinsmobility 	totalTime 	33
scalar MyScenario.node[197].veinsmobility 	stopTime 	35
scalar MyScenario.node[197].veinsmobility 	minSpeed 	1.958624512353
scalar MyScenario.node[197].veinsmobility 	maxSpeed 	13.895427768631
scalar MyScenario.node[197].veinsmobility 	totalDistance 	378.67660489437
scalar MyScenario.node[197].veinsmobility 	totalCO2Emission 	109.53233448782
scalar MyScenario.node[138].appl 	generatedWSMs 	0
scalar MyScenario.node[138].appl 	receivedWSMs 	0
scalar MyScenario.node[138].appl 	generatedBSMs 	0
scalar MyScenario.node[138].appl 	receivedBSMs 	0
scalar MyScenario.node[138].appl 	generatedWSAs 	0
scalar MyScenario.node[138].appl 	receivedWSAs 	0
scalar MyScenario.node[138].nic.phy80211p 	busyTime 	0
scalar MyScenario.node[138].nic.mac1609_4 	ReceivedUnicastPackets 	0
scalar MyScenario.node[138].nic.mac1609_4 	ReceivedBroadcasts 	0
scalar MyScenario.node[138].nic.mac1609_4 	SentPackets 	0
scalar MyScenario.node[138].nic.mac1609_4 	SNIRLostPackets 	0
scalar MyScenario.node[138].nic.mac1609_4 	RXTXLostPackets 	0
scalar MyScenario.node[138].nic.mac1609_4 	TotalLostPackets 	0
scalar MyScenario.node[138].nic.mac1609_4 	DroppedPacketsInMac 	0
scalar MyScenario.node[138].nic.mac1609_4 	TooLittleTime 	0
scalar MyScenario.node[138].nic.mac1609_4 	TimesIntoBackoff 	0
scalar MyScenario.node[138].nic.mac1609_4 	SlotsBackoff 	0
scalar MyScenario.node[138].nic.mac1609_4 	NumInternalContention 	0
scalar MyScenario.node[138].nic.mac1609_4 	totalBusyTime 	0
scalar MyScenario.node[138].veinsmobility 	startTime 	1
scalar MyScenario.node[138].veinsmobility 	totalTime 	33
scalar MyScenario.node[138].veinsmobility 	stopTime 	35
scalar MyScenario.node[138].veinsmobility 	minSpeed 	1.8404234638205
scalar MyScenario.node[138].veinsmobility 	maxSpeed 	13.870494008879
scalar MyScenario.node[138].veinsmobility 	totalDistance 	370.19861399125
scalar MyScenario.node[138].veinsmobility 	totalCO2Emission 	115.43447052889
scalar MyScenario.node[65].appl 	generatedWSMs 	0
scalar MyScenario.node[65].appl 	receivedWSMs 	0
scalar MyScenario.node[65].appl 	generatedBSMs 	0
scalar MyScenario.node[65].appl 	receivedBSMs 	0
scalar MyScenario.node[65].appl 	generatedWSAs 	0
scalar MyScenario.node[65].appl 	receivedWSAs 	0
scalar MyScenario.node[65].nic.phy80211p 	busyTime 	0
scalar MyScenario.node[65].nic.mac1609_4 	ReceivedUnicastPackets 	0
scalar MyScenario.node[65].nic.mac1609_4 	ReceivedBroadcasts 	0
scalar MyScenario.node[65].nic.mac1609_4 	SentPackets 	0
scalar MyScenario.node[65].nic.mac1609_4 	SNIRLostPackets 	0
scalar MyScenario.node[65].nic.mac1609_4 	RXTXLostPackets 	0
scalar MyScenario.node[65].nic.mac1609_4 	TotalLostPackets 	0
scalar MyScenario.node[65].nic.mac1609_4 	DroppedPacketsInMac 	0
scalar MyScenario.node[65].nic.mac1609_4 	TooLittleTime 	0
scalar MyScenario.node[65].nic.mac1609_4 	TimesIntoBackoff 	0
scalar MyScenario.node[65].nic.mac1609_4 	SlotsBackoff 	0
scalar MyScenario.node[65].nic.mac1609_4 	NumInternalContention 	0
scalar MyScenario.node[65].nic.mac1609_4 	totalBusyTime 	0
scalar MyScenario.node[65].veinsmobility 	startTime 	1
scalar MyScenario.node[65].veinsmobility 	totalTime 	34
scalar MyScenario.node[65].veinsmobility 	stopTime 	36
scalar MyScenario.node[65].veinsmobility 	minSpeed 	1.3548181836028
scalar MyScenario.node[65].veinsmobility 	maxSpeed 	13.808912928915
scalar MyScenario.node[65].veinsmobility 	totalDistance 	374.11288631219
scalar MyScenario.node[65].veinsmobility 	totalCO2Emission 	116.06531082099
scalar MyScenario.node[225].appl 	generatedWSMs 	0
scalar MyScenario.node[225].appl 	receivedWSMs 	0
scalar MyScenario.node[225].appl 	generatedBSMs 	0
scalar MyScenario.node[225].appl 	receivedBSMs 	0
scalar MyScenario.node[225].appl 	generatedWSAs 	0
scalar MyScenario.node[225].appl 	receivedWSAs 	0
scalar MyScenario.node[225].nic.phy80211p 	busyTime 	0
scalar MyScenario.node[225].nic.mac1609_4 	ReceivedUnicastPackets 	0
scalar MyScenario.node[225].nic.mac1609_4 	ReceivedBroadcasts 	0
scalar MyScenario.node[225].nic.mac1609_4 	SentPackets 	0
scalar MyScenario.node[225].nic.mac1609_4 	SNIRLostPackets 	0
scalar MyScenario.node[225].nic.mac1609_4 	RXTXLostPackets 	0
scalar MyScenario.node[225].nic.mac1609_4 	TotalLostPackets 	0
scalar MyScenario.node[225].nic.mac1609_4 	DroppedPacketsInMac 	0
scalar MyScenario.node[225].nic.mac1609_4 	TooLittleTime 	0
scalar MyScenario.node[225].nic.mac1609_4 	TimesIntoBackoff 	0
scalar MyScenario.node[225].nic.mac1609_4 	SlotsBackoff 	0
scalar MyScenario.node[225].nic.mac1609_4 	NumInternalContention 	0
scalar MyScenario.node[225].nic.mac1609_4 	totalBusyTime 	0
scalar MyScenario.node[225].veinsmobility 	startTime 	4
scalar MyScenario.node[225].veinsmobility 	totalTime 	31
scalar MyScenario.node[225].veinsmobility 	stopTime 	36
scalar MyScenario.node[225].veinsmobility 	minSpeed 	1.8953345259419
scalar MyScenario.node[225].veinsmobility 	maxSpeed 	13.898947803769
scalar MyScenario.node[225].veinsmobility 	totalDistance 	375.49708596541
scalar MyScenario.node[225].veinsmobility 	totalCO2Emission 	86.058106395062
scalar MyScenario.node[31].appl 	generatedWSMs 	0
scalar MyScenario.node[31].appl 	receivedWSMs 	0
scalar MyScenario.node[31].appl 	generatedBSMs 	0
scalar MyScenario.node[31].appl 	receivedBSMs 	0
scalar MyScenario.node[31].appl 	generatedWSAs 	0
scalar MyScenario.node[31].appl 	receivedWSAs 	0
scalar MyScenario.node[31].nic.phy80211p 	busyTime 	2.8292682926829e-05
scalar MyScenario.node[31].nic.mac1609_4 	ReceivedUnicastPackets 	0
scalar MyScenario.node[31].nic.mac1609_4 	ReceivedBroadcasts 	0
scalar MyScenario.node[31].nic.mac1609_4 	SentPackets 	0
scalar MyScenario.node[31].nic.mac1609_4 	SNIRLostPackets 	5
scalar MyScenario.node[31].nic.mac1609_4 	RXTXLostPackets 	0
scalar MyScenario.node[31].nic.mac1609_4 	TotalLostPackets 	5
scalar MyScenario.node[31].nic.mac1609_4 	DroppedPacketsInMac 	0
scalar MyScenario.node[31].nic.mac1609_4 	TooLittleTime 	0
scalar MyScenario.node[31].nic.mac1609_4 	TimesIntoBackoff 	0
scalar MyScenario.node[31].nic.mac1609_4 	SlotsBackoff 	0
scalar MyScenario.node[31].nic.mac1609_4 	NumInternalContention 	0
scalar MyScenario.node[31].nic.mac1609_4 	totalBusyTime 	0.000696
scalar MyScenario.node[31].veinsmobility 	startTime 	1
scalar MyScenario.node[31].veinsmobility 	totalTime 	40
scalar MyScenario.node[31].veinsmobility 	stopTime 	42
scalar MyScenario.node[31].veinsmobility 	minSpeed 	2.560410325462
scalar MyScenario.node[31].veinsmobility 	maxSpeed 	13.888191963476
scalar MyScenario.node[31].veinsmobility 	totalDistance 	478.09791562517
scalar MyScenario.node[31].veinsmobility 	totalCO2Emission 	115.81813602692
scalar MyScenario.node[268].appl 	generatedWSMs 	0
scalar MyScenario.node[268].appl 	receivedWSMs 	0
scalar MyScenario.node[268].appl 	generatedBSMs 	0
scalar MyScenario.node[268].appl 	receivedBSMs 	0
scalar MyScenario.node[268].appl 	generatedWSAs 	0
scalar MyScenario.node[268].appl 	receivedWSAs 	0
scalar MyScenario.node[268].nic.phy80211p 	busyTime 	0
scalar MyScenario.node[268].nic.mac1609_4 	ReceivedUnicastPackets 	0
scalar MyScenario.node[268].nic.mac1609_4 	ReceivedBroadcasts 	0
scalar MyScenario.node[268].nic.mac1609_4 	SentPackets 	0
scalar MyScenario.node[268].nic.mac1609_4 	SNIRLostPackets 	0
scalar MyScenario.node[268].nic.mac1609_4 	RXTXLostPackets 	0
scalar MyScenario.node[268].nic.mac1609_4 	TotalLostPackets 	0
scalar MyScenario.node[268].nic.mac1609_4 	DroppedPacketsInMac 	0
scalar MyScenario.node[268].nic.mac1609_4 	TooLittleTime 	0
scalar MyScenario.node[268].nic.mac1609_4 	TimesIntoBackoff 	0
scalar MyScenario.node[268].nic.mac1609_4 	SlotsBackoff 	0
scalar MyScenario.node[268].nic.mac1609_4 	NumInternalContention 	0
scalar MyScenario.node[268].nic.mac1609_4 	totalBusyTime 	0
scalar MyScenario.node[268].veinsmobility 	startTime 	4
scalar MyScenario.node[268].veinsmobility 	totalTime 	38
scalar MyScenario.node[268].veinsmobility 	stopTime 	43
scalar MyScenario.node[268].veinsmobility 	minSpeed 	2.5773307349067
scalar MyScenario.node[268].veinsmobility 	maxSpeed 	13.866395626729
scalar MyScenario.node[268].veinsmobility 	totalDistance 	467.3830704183
scalar MyScenario.node[268].veinsmobility 	totalCO2Emission 	104.4080364087
scalar MyScenario.node[50].appl 	generatedWSMs 	1
scalar MyScenario.node[50].appl 	receivedWSMs 	1
scalar MyScenario.node[50].appl 	generatedBSMs 	0
scalar MyScenario.node[50].appl 	receivedBSMs 	0
scalar MyScenario.node[50].appl 	generatedWSAs 	0
scalar MyScenario.node[50].appl 	receivedWSAs 	0
scalar MyScenario.node[50].nic.phy80211p 	busyTime 	3.7767441860465e-05
scalar MyScenario.node[50].nic.mac1609_4 	ReceivedUnicastPackets 	0
scalar MyScenario.node[50].nic.mac1609_4 	ReceivedBroadcasts 	1
scalar MyScenario.node[50].nic.mac1609_4 	SentPackets 	1
scalar MyScenario.node[50].nic.mac1609_4 	SNIRLostPackets 	6
scalar MyScenario.node[50].nic.mac1609_4 	RXTXLostPackets 	8
scalar MyScenario.node[50].nic.mac1609_4 	TotalLostPackets 	14
scalar MyScenario.node[50].nic.mac1609_4 	DroppedPacketsInMac 	0
scalar MyScenario.node[50].nic.mac1609_4 	TooLittleTime 	0
scalar MyScenario.node[50].nic.mac1609_4 	TimesIntoBackoff 	1
scalar MyScenario.node[50].nic.mac1609_4 	SlotsBackoff 	2
scalar MyScenario.node[50].nic.mac1609_4 	NumInternalContention 	0
scalar MyScenario.node[50].nic.mac1609_4 	totalBusyTime 	0.000929068413
scalar MyScenario.node[50].veinsmobility 	startTime 	1
scalar MyScenario.node[50].veinsmobility 	totalTime 	42
scalar MyScenario.node[50].veinsmobility 	stopTime 	44
scalar MyScenario.node[50].veinsmobility 	minSpeed 	2.3866513734683
scalar MyScenario.node[50].veinsmobility 	maxSpeed 	13.764253799338
scalar MyScenario.node[50].veinsmobility 	totalDistance 	471.06770216175
scalar MyScenario.node[50].veinsmobility 	totalCO2Emission 	138.26738135509
scalar MyScenario.node[217].appl 	generatedWSMs 	0
scalar MyScenario.node[217].appl 	receivedWSMs 	0
scalar MyScenario.node[217].appl 	generatedBSMs 	0
scalar MyScenario.node[217].appl 	receivedBSMs 	0
scalar MyScenario.node[217].appl 	generatedWSAs 	0
scalar MyScenario.node[217].appl 	receivedWSAs 	0
scalar MyScenario.node[217].nic.phy80211p 	busyTime 	0
scalar MyScenario.node[217].nic.mac1609_4 	ReceivedUnicastPackets 	0
scalar MyScenario.node[217].nic.mac1609_4 	ReceivedBroadcasts 	0
scalar MyScenario.node[217].nic.mac1609_4 	SentPackets 	0
scalar MyScenario.node[217].nic.mac1609_4 	SNIRLostPackets 	0
scalar MyScenario.node[217].nic.mac1609_4 	RXTXLostPackets 	0
scalar MyScenario.node[217].nic.mac1609_4 	TotalLostPackets 	0
scalar MyScenario.node[217].nic.mac1609_4 	DroppedPacketsInMac 	0
scalar MyScenario.node[217].nic.mac1609_4 	TooLittleTime 	0
scalar MyScenario.node[217].nic.mac1609_4 	TimesIntoBackoff 	0
scalar MyScenario.node[217].nic.mac1609_4 	SlotsBackoff 	0
scalar MyScenario.node[217].nic.mac1609_4 	NumInternalContention 	0
scalar MyScenario.node[217].nic.mac1609_4 	totalBusyTime 	0
scalar MyScenario.node[217].veinsmobility 	startTime 	4
scalar MyScenario.node[217].veinsmobility 	totalTime 	39
scalar MyScenario.node[217].veinsmobility 	stopTime 	44
scalar MyScenario.node[217].veinsmobility 	minSpeed 	2.2933826959925
scalar MyScenario.node[217].veinsmobility 	maxSpeed 	13.850828457368
scalar MyScenario.node[217].veinsmobility 	totalDistance 	472.27284693977
scalar MyScenario.node[217].veinsmobility 	totalCO2Emission 	111.06102137146
scalar MyScenario.node[237].appl 	generatedWSMs 	0
scalar MyScenario.node[237].appl 	receivedWSMs 	0
scalar MyScenario.node[237].appl 	generatedBSMs 	0
scalar MyScenario.node[237].appl 	receivedBSMs 	0
scalar MyScenario.node[237].appl 	generatedWSAs 	0
scalar MyScenario.node[237].appl 	receivedWSAs 	0
scalar MyScenario.node[237].nic.phy80211p 	busyTime 	0
scalar MyScenario.node[237].nic.mac1609_4 	ReceivedUnicastPackets 	0
scalar MyScenario.node[237].nic.mac1609_4 	ReceivedBroadcasts 	0
scalar MyScenario.node[237].nic.mac1609_4 	SentPackets 	0
scalar MyScenario.node[237].nic.mac1609_4 	SNIRLostPackets 	0
scalar MyScenario.node[237].nic.mac1609_4 	RXTXLostPackets 	0
scalar MyScenario.node[237].nic.mac1609_4 	TotalLostPackets 	0
scalar MyScenario.node[237].nic.mac1609_4 	DroppedPacketsInMac 	0
scalar MyScenario.node[237].nic.mac1609_4 	TooLittleTime 	0
scalar MyScenario.node[237].nic.mac1609_4 	TimesIntoBackoff 	0
scalar MyScenario.node[237].nic.mac1609_4 	SlotsBackoff 	0
scalar MyScenario.node[237].nic.mac1609_4 	NumInternalContention 	0
scalar MyScenario.node[237].nic.mac1609_4 	totalBusyTime 	0
scalar MyScenario.node[237].veinsmobility 	startTime 	4
scalar MyScenario.node[237].veinsmobility 	totalTime 	39
scalar MyScenario.node[237].veinsmobility 	stopTime 	44
scalar MyScenario.node[237].veinsmobility 	minSpeed 	2.4268192966469
scalar MyScenario.node[237].veinsmobility 	maxSpeed 	13.838920811936
scalar MyScenario.node[237].veinsmobility 	totalDistance 	485.37006581412
scalar MyScenario.node[237].veinsmobility 	totalCO2Emission 	104.46888194737
scalar MyScenario.node[43].appl 	generatedWSMs 	0
scalar MyScenario.node[43].appl 	receivedWSMs 	0
scalar MyScenario.node[43].appl 	generatedBSMs 	0
scalar MyScenario.node[43].appl 	receivedBSMs 	0
scalar MyScenario.node[43].appl 	generatedWSAs 	0
scalar MyScenario.node[43].appl 	receivedWSAs 	0
scalar MyScenario.node[43].nic.phy80211p 	busyTime 	0
scalar MyScenario.node[43].nic.mac1609_4 	ReceivedUnicastPackets 	0
scalar MyScenario.node[43].nic.mac1609_4 	ReceivedBroadcasts 	0
scalar MyScenario.node[43].nic.mac1609_4 	SentPackets 	0
scalar MyScenario.node[43].nic.mac1609_4 	SNIRLostPackets 	0
scalar MyScenario.node[43].nic.mac1609_4 	RXTXLostPackets 	0
scalar MyScenario.node[43].nic.mac1609_4 	TotalLostPackets 	0
scalar MyScenario.node[43].nic.mac1609_4 	DroppedPacketsInMac 	0
scalar MyScenario.node[43].nic.mac1609_4 	TooLittleTime 	0
scalar MyScenario.node[43].nic.mac1609_4 	TimesIntoBackoff 	0
scalar MyScenario.node[43].nic.mac1609_4 	SlotsBackoff 	0
scalar MyScenario.node[43].nic.mac1609_4 	NumInternalContention 	0
scalar MyScenario.node[43].nic.mac1609_4 	totalBusyTime 	0
scalar MyScenario.node[43].veinsmobility 	startTime 	1
scalar MyScenario.node[43].veinsmobility 	totalTime 	43
scalar MyScenario.node[43].veinsmobility 	stopTime 	45
scalar MyScenario.node[43].veinsmobility 	minSpeed 	1.6667975827935
scalar MyScenario.node[43].veinsmobility 	maxSpeed 	13.837433456234
scalar MyScenario.node[43].veinsmobility 	totalDistance 	468.45545671415
scalar MyScenario.node[43].veinsmobility 	totalCO2Emission 	144.15361890401
scalar MyScenario.node[269].appl 	generatedWSMs 	0
scalar MyScenario.node[269].appl 	receivedWSMs 	0
scalar MyScenario.node[269].appl 	generatedBSMs 	0
scalar MyScenario.node[269].appl 	receivedBSMs 	0
scalar MyScenario.node[269].appl 	generatedWSAs 	0
scalar MyScenario.node[269].appl 	receivedWSAs 	0
scalar MyScenario.node[269].nic.phy80211p 	busyTime 	0
scalar MyScenario.node[269].nic.mac1609_4 	ReceivedUnicastPackets 	0
scalar MyScenario.node[269].nic.mac1609_4 	ReceivedBroadcasts 	0
scalar MyScenario.node[269].nic.mac1609_4 	SentPackets 	0
scalar MyScenario.node[269].nic.mac1609_4 	SNIRLostPackets 	0
scalar MyScenario.node[269].nic.mac1609_4 	RXTXLostPackets 	0
scalar MyScenario.node[269].nic.mac1609_4 	TotalLostPackets 	0
scalar MyScenario.node[269].nic.mac1609_4 	DroppedPacketsInMac 	0
scalar MyScenario.node[269].nic.mac1609_4 	TooLittleTime 	0
scalar MyScenario.node[269].nic.mac1609_4 	TimesIntoBackoff 	0
scalar MyScenario.node[269].nic.mac1609_4 	SlotsBackoff 	0
scalar MyScenario.node[269].nic.mac1609_4 	NumInternalContention 	0
scalar MyScenario.node[269].nic.mac1609_4 	totalBusyTime 	0
scalar MyScenario.node[269].veinsmobility 	startTime 	4
scalar MyScenario.node[269].veinsmobility 	totalTime 	40
scalar MyScenario.node[269].veinsmobility 	stopTime 	45
scalar MyScenario.node[269].veinsmobility 	minSpeed 	2.1978292594431
scalar MyScenario.node[269].veinsmobility 	maxSpeed 	13.886993924901
scalar MyScenario.node[269].veinsmobility 	totalDistance 	474.70759609835
scalar MyScenario.node[269].veinsmobility 	totalCO2Emission 	124.31863458467
scalar MyScenario.node[204].appl 	generatedWSMs 	0
scalar MyScenario.node[204].appl 	receivedWSMs 	0
scalar MyScenario.node[204].appl 	generatedBSMs 	0
scalar MyScenario.node[204].appl 	receivedBSMs 	0
scalar MyScenario.node[204].appl 	generatedWSAs 	0
scalar MyScenario.node[204].appl 	receivedWSAs 	0
scalar MyScenario.node[204].nic.phy80211p 	busyTime 	0
scalar MyScenario.node[204].nic.mac1609_4 	ReceivedUnicastPackets 	0
scalar MyScenario.node[204].nic.mac1609_4 	ReceivedBroadcasts 	0
scalar MyScenario.node[204].nic.mac1609_4 	SentPackets 	0
scalar MyScenario.node[204].nic.mac1609_4 	SNIRLostPackets 	0
scalar MyScenario.node[204].nic.mac1609_4 	RXTXLostPackets 	0
scalar MyScenario.node[204].nic.mac1609_4 	TotalLostPackets 	0
scalar MyScenario.node[204].nic.mac1609_4 	DroppedPacketsInMac 	0
scalar MyScenario.node[204].nic.mac1609_4 	TooLittleTime 	0
scalar MyScenario.node[204].nic.mac1609_4 	TimesIntoBackoff 	0
scalar MyScenario.node[204].nic.mac1609_4 	SlotsBackoff 	0
scalar MyScenario.node[204].nic.mac1609_4 	NumInternalContention 	0
scalar MyScenario.node[204].nic.mac1609_4 	totalBusyTime 	0
scalar MyScenario.node[204].veinsmobility 	startTime 	4
scalar MyScenario.node[204].veinsmobility 	totalTime 	41
scalar MyScenario.node[204].veinsmobility 	stopTime 	46
scalar MyScenario.node[204].veinsmobility 	minSpeed 	2.4854948387481
scalar MyScenario.node[204].veinsmobility 	maxSpeed 	13.835984483967
scalar MyScenario.node[204].veinsmobility 	totalDistance 	381.01048005232
scalar MyScenario.node[204].veinsmobility 	totalCO2Emission 	134.0761645457
scalar MyScenario.node[223].appl 	generatedWSMs 	0
scalar MyScenario.node[223].appl 	receivedWSMs 	0
scalar MyScenario.node[223].appl 	generatedBSMs 	0
scalar MyScenario.node[223].appl 	receivedBSMs 	0
scalar MyScenario.node[223].appl 	generatedWSAs 	0
scalar MyScenario.node[223].appl 	receivedWSAs 	0
scalar MyScenario.node[223].nic.phy80211p 	busyTime 	0
scalar MyScenario.node[223].nic.mac1609_4 	ReceivedUnicastPackets 	0
scalar MyScenario.node[223].nic.mac1609_4 	ReceivedBroadcasts 	0
scalar MyScenario.node[223].nic.mac1609_4 	SentPackets 	0
scalar MyScenario.node[223].nic.mac1609_4 	SNIRLostPackets 	0
scalar MyScenario.node[223].nic.mac1609_4 	RXTXLostPackets 	0
scalar MyScenario.node[223].nic.mac1609_4 	TotalLostPackets 	0
scalar MyScenario.node[223].nic.mac1609_4 	DroppedPacketsInMac 	0
scalar MyScenario.node[223].nic.mac1609_4 	TooLittleTime 	0
scalar MyScenario.node[223].nic.mac1609_4 	TimesIntoBackoff 	0
scalar MyScenario.node[223].nic.mac1609_4 	SlotsBackoff 	0
scalar MyScenario.node[223].nic.mac1609_4 	NumInternalContention 	0
scalar MyScenario.node[223].nic.mac1609_4 	totalBusyTime 	0
scalar MyScenario.node[223].veinsmobility 	startTime 	4
scalar MyScenario.node[223].veinsmobility 	totalTime 	43
scalar MyScenario.node[223].veinsmobility 	stopTime 	48
scalar MyScenario.node[223].veinsmobility 	minSpeed 	2.4542903585127
scalar MyScenario.node[223].veinsmobility 	maxSpeed 	13.884471045784
scalar MyScenario.node[223].veinsmobility 	totalDistance 	472.6547151068
scalar MyScenario.node[223].veinsmobility 	totalCO2Emission 	150.66799067099
scalar MyScenario.node[98].appl 	generatedWSMs 	0
scalar MyScenario.node[98].appl 	receivedWSMs 	0
scalar MyScenario.node[98].appl 	generatedBSMs 	0
scalar MyScenario.node[98].appl 	receivedBSMs 	0
scalar MyScenario.node[98].appl 	generatedWSAs 	0
scalar MyScenario.node[98].appl 	receivedWSAs 	0
scalar MyScenario.node[98].nic.phy80211p 	busyTime 	2.9617021276596e-05
scalar MyScenario.node[98].nic.mac1609_4 	ReceivedUnicastPackets 	0
scalar MyScenario.node[98].nic.mac1609_4 	ReceivedBroadcasts 	0
scalar MyScenario.node[98].nic.mac1609_4 	SentPackets 	0
scalar MyScenario.node[98].nic.mac1609_4 	SNIRLostPackets 	6
scalar MyScenario.node[98].nic.mac1609_4 	RXTXLostPackets 	0
scalar MyScenario.node[98].nic.mac1609_4 	TotalLostPackets 	6
scalar MyScenario.node[98].nic.mac1609_4 	DroppedPacketsInMac 	0
scalar MyScenario.node[98].nic.mac1609_4 	TooLittleTime 	0
scalar MyScenario.node[98].nic.mac1609_4 	TimesIntoBackoff 	0
scalar MyScenario.node[98].nic.mac1609_4 	SlotsBackoff 	0
scalar MyScenario.node[98].nic.mac1609_4 	NumInternalContention 	0
scalar MyScenario.node[98].nic.mac1609_4 	totalBusyTime 	0.000696
scalar MyScenario.node[98].veinsmobility 	startTime 	1
scalar MyScenario.node[98].veinsmobility 	totalTime 	46
scalar MyScenario.node[98].veinsmobility 	stopTime 	48
scalar MyScenario.node[98].veinsmobility 	minSpeed 	1.3537660492548
scalar MyScenario.node[98].veinsmobility 	maxSpeed 	13.765192686464
scalar MyScenario.node[98].veinsmobility 	totalDistance 	468.70828622787
scalar MyScenario.node[98].veinsmobility 	totalCO2Emission 	165.03113731504
scalar MyScenario.node[133].appl 	generatedWSMs 	0
scalar MyScenario.node[133].appl 	receivedWSMs 	0
scalar MyScenario.node[133].appl 	generatedBSMs 	0
scalar MyScenario.node[133].appl 	receivedBSMs 	0
scalar MyScenario.node[133].appl 	generatedWSAs 	0
scalar MyScenario.node[133].appl 	receivedWSAs 	0
scalar MyScenario.node[133].nic.phy80211p 	busyTime 	0
scalar MyScenario.node[133].nic.mac1609_4 	ReceivedUnicastPackets 	0
scalar MyScenario.node[133].nic.mac1609_4 	ReceivedBroadcasts 	0
scalar MyScenario.node[133].nic.mac1609_4 	SentPackets 	0
scalar MyScenario.node[133].nic.mac1609_4 	SNIRLostPackets 	0
scalar MyScenario.node[133].nic.mac1609_4 	RXTXLostPackets 	0
scalar MyScenario.node[133].nic.mac1609_4 	TotalLostPackets 	0
scalar MyScenario.node[133].nic.mac1609_4 	DroppedPacketsInMac 	0
scalar MyScenario.node[133].nic.mac1609_4 	TooLittleTime 	0
scalar MyScenario.node[133].nic.mac1609_4 	TimesIntoBackoff 	0
scalar MyScenario.node[133].nic.mac1609_4 	SlotsBackoff 	0
scalar MyScenario.node[133].nic.mac1609_4 	NumInternalContention 	0
scalar MyScenario.node[133].nic.mac1609_4 	totalBusyTime 	0
scalar MyScenario.node[133].veinsmobility 	startTime 	1
scalar MyScenario.node[133].veinsmobility 	totalTime 	46
scalar MyScenario.node[133].veinsmobility 	stopTime 	48
scalar MyScenario.node[133].veinsmobility 	minSpeed 	0.064956940094353
scalar MyScenario.node[133].veinsmobility 	maxSpeed 	13.864365746779
scalar MyScenario.node[133].veinsmobility 	totalDistance 	463.18548399353
scalar MyScenario.node[133].veinsmobility 	totalCO2Emission 	147.54716433668
scalar MyScenario.node[51].appl 	generatedWSMs 	0
scalar MyScenario.node[51].appl 	receivedWSMs 	0
scalar MyScenario.node[51].appl 	generatedBSMs 	0
scalar MyScenario.node[51].appl 	receivedBSMs 	0
scalar MyScenario.node[51].appl 	generatedWSAs 	0
scalar MyScenario.node[51].appl 	receivedWSAs 	0
scalar MyScenario.node[51].nic.phy80211p 	busyTime 	0
scalar MyScenario.node[51].nic.mac1609_4 	ReceivedUnicastPackets 	0
scalar MyScenario.node[51].nic.mac1609_4 	ReceivedBroadcasts 	0
scalar MyScenario.node[51].nic.mac1609_4 	SentPackets 	0
scalar MyScenario.node[51].nic.mac1609_4 	SNIRLostPackets 	0
scalar MyScenario.node[51].nic.mac1609_4 	RXTXLostPackets 	0
scalar MyScenario.node[51].nic.mac1609_4 	TotalLostPackets 	0
scalar MyScenario.node[51].nic.mac1609_4 	DroppedPacketsInMac 	0
scalar MyScenario.node[51].nic.mac1609_4 	TooLittleTime 	0
scalar MyScenario.node[51].nic.mac1609_4 	TimesIntoBackoff 	0
scalar MyScenario.node[51].nic.mac1609_4 	SlotsBackoff 	0
scalar MyScenario.node[51].nic.mac1609_4 	NumInternalContention 	0
scalar MyScenario.node[51].nic.mac1609_4 	totalBusyTime 	0
scalar MyScenario.node[51].veinsmobility 	startTime 	1
scalar MyScenario.node[51].veinsmobility 	totalTime 	47
scalar MyScenario.node[51].veinsmobility 	stopTime 	49
scalar MyScenario.node[51].veinsmobility 	minSpeed 	0.10016138736304
scalar MyScenario.node[51].veinsmobility 	maxSpeed 	13.732001406397
scalar MyScenario.node[51].veinsmobility 	totalDistance 	471.8691204087
scalar MyScenario.node[51].veinsmobility 	totalCO2Emission 	151.24230471719
scalar MyScenario.node[239].appl 	generatedWSMs 	0
scalar MyScenario.node[239].appl 	receivedWSMs 	0
scalar MyScenario.node[239].appl 	generatedBSMs 	0
scalar MyScenario.node[239].appl 	receivedBSMs 	0
scalar MyScenario.node[239].appl 	generatedWSAs 	0
scalar MyScenario.node[239].appl 	receivedWSAs 	0
scalar MyScenario.node[239].nic.phy80211p 	busyTime 	0
scalar MyScenario.node[239].nic.mac1609_4 	ReceivedUnicastPackets 	0
scalar MyScenario.node[239].nic.mac1609_4 	ReceivedBroadcasts 	0
scalar MyScenario.node[239].nic.mac1609_4 	SentPackets 	0
scalar MyScenario.node[239].nic.mac1609_4 	SNIRLostPackets 	0
scalar MyScenario.node[239].nic.mac1609_4 	RXTXLostPackets 	0
scalar MyScenario.node[239].nic.mac1609_4 	TotalLostPackets 	0
scalar MyScenario.node[239].nic.mac1609_4 	DroppedPacketsInMac 	0
scalar MyScenario.node[239].nic.mac1609_4 	TooLittleTime 	0
scalar MyScenario.node[239].nic.mac1609_4 	TimesIntoBackoff 	0
scalar MyScenario.node[239].nic.mac1609_4 	SlotsBackoff 	0
scalar MyScenario.node[239].nic.mac1609_4 	NumInternalContention 	0
scalar MyScenario.node[239].nic.mac1609_4 	totalBusyTime 	0
scalar MyScenario.node[239].veinsmobility 	startTime 	4
scalar MyScenario.node[239].veinsmobility 	totalTime 	45
scalar MyScenario.node[239].veinsmobility 	stopTime 	50
scalar MyScenario.node[239].veinsmobility 	minSpeed 	0.0018125069831312
scalar MyScenario.node[239].veinsmobility 	maxSpeed 	13.866976680304
scalar MyScenario.node[239].veinsmobility 	totalDistance 	375.18491956375
scalar MyScenario.node[239].veinsmobility 	totalCO2Emission 	111.95183572602
scalar MyScenario.node[194].appl 	generatedWSMs 	0
scalar MyScenario.node[194].appl 	receivedWSMs 	0
scalar MyScenario.node[194].appl 	generatedBSMs 	0
scalar MyScenario.node[194].appl 	receivedBSMs 	0
scalar MyScenario.node[194].appl 	generatedWSAs 	0
scalar MyScenario.node[194].appl 	receivedWSAs 	0
scalar MyScenario.node[194].nic.phy80211p 	busyTime 	4.734693877551e-06
scalar MyScenario.node[194].nic.mac1609_4 	ReceivedUnicastPackets 	0
scalar MyScenario.node[194].nic.mac1609_4 	ReceivedBroadcasts 	0
scalar MyScenario.node[194].nic.mac1609_4 	SentPackets 	0
scalar MyScenario.node[194].nic.mac1609_4 	SNIRLostPackets 	1
scalar MyScenario.node[194].nic.mac1609_4 	RXTXLostPackets 	0
scalar MyScenario.node[194].nic.mac1609_4 	TotalLostPackets 	1
scalar MyScenario.node[194].nic.mac1609_4 	DroppedPacketsInMac 	0
scalar MyScenario.node[194].nic.mac1609_4 	TooLittleTime 	0
scalar MyScenario.node[194].nic.mac1609_4 	TimesIntoBackoff 	0
scalar MyScenario.node[194].nic.mac1609_4 	SlotsBackoff 	0
scalar MyScenario.node[194].nic.mac1609_4 	NumInternalContention 	0
scalar MyScenario.node[194].nic.mac1609_4 	totalBusyTime 	0.000232
scalar MyScenario.node[194].veinsmobility 	startTime 	1
scalar MyScenario.node[194].veinsmobility 	totalTime 	48
scalar MyScenario.node[194].veinsmobility 	stopTime 	50
scalar MyScenario.node[194].veinsmobility 	minSpeed 	1.5815020595444
scalar MyScenario.node[194].veinsmobility 	maxSpeed 	13.880554603273
scalar MyScenario.node[194].veinsmobility 	totalDistance 	577.59826234498
scalar MyScenario.node[194].veinsmobility 	totalCO2Emission 	139.67559820202
scalar MyScenario.node[136].appl 	generatedWSMs 	0
scalar MyScenario.node[136].appl 	receivedWSMs 	0
scalar MyScenario.node[136].appl 	generatedBSMs 	0
scalar MyScenario.node[136].appl 	receivedBSMs 	0
scalar MyScenario.node[136].appl 	generatedWSAs 	0
scalar MyScenario.node[136].appl 	receivedWSAs 	0
scalar MyScenario.node[136].nic.phy80211p 	busyTime 	0
scalar MyScenario.node[136].nic.mac1609_4 	ReceivedUnicastPackets 	0
scalar MyScenario.node[136].nic.mac1609_4 	ReceivedBroadcasts 	0
scalar MyScenario.node[136].nic.mac1609_4 	SentPackets 	0
scalar MyScenario.node[136].nic.mac1609_4 	SNIRLostPackets 	0
scalar MyScenario.node[136].nic.mac1609_4 	RXTXLostPackets 	0
scalar MyScenario.node[136].nic.mac1609_4 	TotalLostPackets 	0
scalar MyScenario.node[136].nic.mac1609_4 	DroppedPacketsInMac 	0
scalar MyScenario.node[136].nic.mac1609_4 	TooLittleTime 	0
scalar MyScenario.node[136].nic.mac1609_4 	TimesIntoBackoff 	0
scalar MyScenario.node[136].nic.mac1609_4 	SlotsBackoff 	0
scalar MyScenario.node[136].nic.mac1609_4 	NumInternalContention 	0
scalar MyScenario.node[136].nic.mac1609_4 	totalBusyTime 	0
scalar MyScenario.node[136].veinsmobility 	startTime 	1
scalar MyScenario.node[136].veinsmobility 	totalTime 	48
scalar MyScenario.node[136].veinsmobility 	stopTime 	50
scalar MyScenario.node[136].veinsmobility 	minSpeed 	1.3844317247393
scalar MyScenario.node[136].veinsmobility 	maxSpeed 	13.897977515729
scalar MyScenario.node[136].veinsmobility 	totalDistance 	560.57288023824
scalar MyScenario.node[136].veinsmobility 	totalCO2Emission 	158.25848991701
scalar MyScenario.node[73].appl 	generatedWSMs 	1
scalar MyScenario.node[73].appl 	receivedWSMs 	2
scalar MyScenario.node[73].appl 	generatedBSMs 	0
scalar MyScenario.node[73].appl 	receivedBSMs 	0
scalar MyScenario.node[73].appl 	generatedWSAs 	0
scalar MyScenario.node[73].appl 	receivedWSAs 	0
scalar MyScenario.node[73].nic.phy80211p 	busyTime 	9.744e-05
scalar MyScenario.node[73].nic.mac1609_4 	ReceivedUnicastPackets 	0
scalar MyScenario.node[73].nic.mac1609_4 	ReceivedBroadcasts 	2
scalar MyScenario.node[73].nic.mac1609_4 	SentPackets 	1
scalar MyScenario.node[73].nic.mac1609_4 	SNIRLostPackets 	19
scalar MyScenario.node[73].nic.mac1609_4 	RXTXLostPackets 	1
scalar MyScenario.node[73].nic.mac1609_4 	TotalLostPackets 	20
scalar MyScenario.node[73].nic.mac1609_4 	DroppedPacketsInMac 	0
scalar MyScenario.node[73].nic.mac1609_4 	TooLittleTime 	0
scalar MyScenario.node[73].nic.mac1609_4 	TimesIntoBackoff 	1
scalar MyScenario.node[73].nic.mac1609_4 	SlotsBackoff 	2
scalar MyScenario.node[73].nic.mac1609_4 	NumInternalContention 	0
scalar MyScenario.node[73].nic.mac1609_4 	totalBusyTime 	0.001857
scalar MyScenario.node[73].veinsmobility 	startTime 	1
scalar MyScenario.node[73].veinsmobility 	totalTime 	49
scalar MyScenario.node[73].veinsmobility 	stopTime 	51
scalar MyScenario.node[73].veinsmobility 	minSpeed 	2.1586717735743
scalar MyScenario.node[73].veinsmobility 	maxSpeed 	13.896611617575
scalar MyScenario.node[73].veinsmobility 	totalDistance 	579.18379832139
scalar MyScenario.node[73].veinsmobility 	totalCO2Emission 	144.20678728182
scalar MyScenario.node[8].appl 	generatedWSMs 	0
scalar MyScenario.node[8].appl 	receivedWSMs 	0
scalar MyScenario.node[8].appl 	generatedBSMs 	0
scalar MyScenario.node[8].appl 	receivedBSMs 	0
scalar MyScenario.node[8].appl 	generatedWSAs 	0
scalar MyScenario.node[8].appl 	receivedWSAs 	0
scalar MyScenario.node[8].nic.phy80211p 	busyTime 	0
scalar MyScenario.node[8].nic.mac1609_4 	ReceivedUnicastPackets 	0
scalar MyScenario.node[8].nic.mac1609_4 	ReceivedBroadcasts 	0
scalar MyScenario.node[8].nic.mac1609_4 	SentPackets 	0
scalar MyScenario.node[8].nic.mac1609_4 	SNIRLostPackets 	0
scalar MyScenario.node[8].nic.mac1609_4 	RXTXLostPackets 	0
scalar MyScenario.node[8].nic.mac1609_4 	TotalLostPackets 	0
scalar MyScenario.node[8].nic.mac1609_4 	DroppedPacketsInMac 	0
scalar MyScenario.node[8].nic.mac1609_4 	TooLittleTime 	0
scalar MyScenario.node[8].nic.mac1609_4 	TimesIntoBackoff 	0
scalar MyScenario.node[8].nic.mac1609_4 	SlotsBackoff 	0
scalar MyScenario.node[8].nic.mac1609_4 	NumInternalContention 	0
scalar MyScenario.node[8].nic.mac1609_4 	totalBusyTime 	0
scalar MyScenario.node[8].veinsmobility 	startTime 	1
scalar MyScenario.node[8].veinsmobility 	totalTime 	50
scalar MyScenario.node[8].veinsmobility 	stopTime 	52
scalar MyScenario.node[8].veinsmobility 	minSpeed 	0.00010318407144792
scalar MyScenario.node[8].veinsmobility 	maxSpeed 	13.867983721243
scalar MyScenario.node[8].veinsmobility 	totalDistance 	474.14769747773
scalar MyScenario.node[8].veinsmobility 	totalCO2Emission 	147.05269425833
scalar MyScenario.node[155].appl 	generatedWSMs 	0
scalar MyScenario.node[155].appl 	receivedWSMs 	0
scalar MyScenario.node[155].appl 	generatedBSMs 	0
scalar MyScenario.node[155].appl 	receivedBSMs 	0
scalar MyScenario.node[155].appl 	generatedWSAs 	0
scalar MyScenario.node[155].appl 	receivedWSAs 	0
scalar MyScenario.node[155].nic.phy80211p 	busyTime 	2.7294117647059e-05
scalar MyScenario.node[155].nic.mac1609_4 	ReceivedUnicastPackets 	0
scalar MyScenario.node[155].nic.mac1609_4 	ReceivedBroadcasts 	0
scalar MyScenario.node[155].nic.mac1609_4 	SentPackets 	0
scalar MyScenario.node[155].nic.mac1609_4 	SNIRLostPackets 	6
scalar MyScenario.node[155].nic.mac1609_4 	RXTXLostPackets 	0
scalar MyScenario.node[155].nic.mac1609_4 	TotalLostPackets 	6
scalar MyScenario.node[155].nic.mac1609_4 	DroppedPacketsInMac 	0
scalar MyScenario.node[155].nic.mac1609_4 	TooLittleTime 	0
scalar MyScenario.node[155].nic.mac1609_4 	TimesIntoBackoff 	0
scalar MyScenario.node[155].nic.mac1609_4 	SlotsBackoff 	0
scalar MyScenario.node[155].nic.mac1609_4 	NumInternalContention 	0
scalar MyScenario.node[155].nic.mac1609_4 	totalBusyTime 	0.000232
scalar MyScenario.node[155].veinsmobility 	startTime 	1
scalar MyScenario.node[155].veinsmobility 	totalTime 	50
scalar MyScenario.node[155].veinsmobility 	stopTime 	52
scalar MyScenario.node[155].veinsmobility 	minSpeed 	2.0310151410289
scalar MyScenario.node[155].veinsmobility 	maxSpeed 	13.865760414046
scalar MyScenario.node[155].veinsmobility 	totalDistance 	568.9443970813
scalar MyScenario.node[155].veinsmobility 	totalCO2Emission 	162.01950014133
scalar MyScenario.node[102].appl 	generatedWSMs 	0
scalar MyScenario.node[102].appl 	receivedWSMs 	0
scalar MyScenario.node[102].appl 	generatedBSMs 	0
scalar MyScenario.node[102].appl 	receivedBSMs 	0
scalar MyScenario.node[102].appl 	generatedWSAs 	0
scalar MyScenario.node[102].appl 	receivedWSAs 	0
scalar MyScenario.node[102].nic.phy80211p 	busyTime 	0
scalar MyScenario.node[102].nic.mac1609_4 	ReceivedUnicastPackets 	0
scalar MyScenario.node[102].nic.mac1609_4 	ReceivedBroadcasts 	0
scalar MyScenario.node[102].nic.mac1609_4 	SentPackets 	0
scalar MyScenario.node[102].nic.mac1609_4 	SNIRLostPackets 	0
scalar MyScenario.node[102].nic.mac1609_4 	RXTXLostPackets 	0
scalar MyScenario.node[102].nic.mac1609_4 	TotalLostPackets 	0
scalar MyScenario.node[102].nic.mac1609_4 	DroppedPacketsInMac 	0
scalar MyScenario.node[102].nic.mac1609_4 	TooLittleTime 	0
scalar MyScenario.node[102].nic.mac1609_4 	TimesIntoBackoff 	0
scalar MyScenario.node[102].nic.mac1609_4 	SlotsBackoff 	0
scalar MyScenario.node[102].nic.mac1609_4 	NumInternalContention 	0
scalar MyScenario.node[102].nic.mac1609_4 	totalBusyTime 	0
scalar MyScenario.node[102].veinsmobility 	startTime 	1
scalar MyScenario.node[102].veinsmobility 	totalTime 	51
scalar MyScenario.node[102].veinsmobility 	stopTime 	53
scalar MyScenario.node[102].veinsmobility 	minSpeed 	0.96300021435721
scalar MyScenario.node[102].veinsmobility 	maxSpeed 	13.844641070999
scalar MyScenario.node[102].veinsmobility 	totalDistance 	582.25828928023
scalar MyScenario.node[102].veinsmobility 	totalCO2Emission 	146.84922955697
scalar MyScenario.node[304].appl 	generatedWSMs 	0
scalar MyScenario.node[304].appl 	receivedWSMs 	0
scalar MyScenario.node[304].appl 	generatedBSMs 	0
scalar MyScenario.node[304].appl 	receivedBSMs 	0
scalar MyScenario.node[304].appl 	generatedWSAs 	0
scalar MyScenario.node[304].appl 	receivedWSAs 	0
scalar MyScenario.node[304].nic.phy80211p 	busyTime 	0
scalar MyScenario.node[304].nic.mac1609_4 	ReceivedUnicastPackets 	0
scalar MyScenario.node[304].nic.mac1609_4 	ReceivedBroadcasts 	0
scalar MyScenario.node[304].nic.mac1609_4 	SentPackets 	0
scalar MyScenario.node[304].nic.mac1609_4 	SNIRLostPackets 	0
scalar MyScenario.node[304].nic.mac1609_4 	RXTXLostPackets 	0
scalar MyScenario.node[304].nic.mac1609_4 	TotalLostPackets 	0
scalar MyScenario.node[304].nic.mac1609_4 	DroppedPacketsInMac 	0
scalar MyScenario.node[304].nic.mac1609_4 	TooLittleTime 	0
scalar MyScenario.node[304].nic.mac1609_4 	TimesIntoBackoff 	0
scalar MyScenario.node[304].nic.mac1609_4 	SlotsBackoff 	0
scalar MyScenario.node[304].nic.mac1609_4 	NumInternalContention 	0
scalar MyScenario.node[304].nic.mac1609_4 	totalBusyTime 	0
scalar MyScenario.node[304].veinsmobility 	startTime 	15
scalar MyScenario.node[304].veinsmobility 	totalTime 	37
scalar MyScenario.node[304].veinsmobility 	stopTime 	53
scalar MyScenario.node[304].veinsmobility 	minSpeed 	0.0018768797715502
scalar MyScenario.node[304].veinsmobility 	maxSpeed 	13.874713228084
scalar MyScenario.node[304].veinsmobility 	totalDistance 	375.65702404589
scalar MyScenario.node[304].veinsmobility 	totalCO2Emission 	104.88876426095
scalar MyScenario.node[134].appl 	generatedWSMs 	0
scalar MyScenario.node[134].appl 	receivedWSMs 	0
scalar MyScenario.node[134].appl 	generatedBSMs 	0
scalar MyScenario.node[134].appl 	receivedBSMs 	0
scalar MyScenario.node[134].appl 	generatedWSAs 	0
scalar MyScenario.node[134].appl 	receivedWSAs 	0
scalar MyScenario.node[134].nic.phy80211p 	busyTime 	8.9230769230769e-06
scalar MyScenario.node[134].nic.mac1609_4 	ReceivedUnicastPackets 	0
scalar MyScenario.node[134].nic.mac1609_4 	ReceivedBroadcasts 	0
scalar MyScenario.node[134].nic.mac1609_4 	SentPackets 	0
scalar MyScenario.node[134].nic.mac1609_4 	SNIRLostPackets 	2
scalar MyScenario.node[134].nic.mac1609_4 	RXTXLostPackets 	0
scalar MyScenario.node[134].nic.mac1609_4 	TotalLostPackets 	2
scalar MyScenario.node[134].nic.mac1609_4 	DroppedPacketsInMac 	0
scalar MyScenario.node[134].nic.mac1609_4 	TooLittleTime 	0
scalar MyScenario.node[134].nic.mac1609_4 	TimesIntoBackoff 	0
scalar MyScenario.node[134].nic.mac1609_4 	SlotsBackoff 	0
scalar MyScenario.node[134].nic.mac1609_4 	NumInternalContention 	0
scalar MyScenario.node[134].nic.mac1609_4 	totalBusyTime 	0.000232
scalar MyScenario.node[134].veinsmobility 	startTime 	1
scalar MyScenario.node[134].veinsmobility 	totalTime 	51
scalar MyScenario.node[134].veinsmobility 	stopTime 	53
scalar MyScenario.node[134].veinsmobility 	minSpeed 	2.2622533637138
scalar MyScenario.node[134].veinsmobility 	maxSpeed 	13.872466426878
scalar MyScenario.node[134].veinsmobility 	totalDistance 	578.03296702611
scalar MyScenario.node[134].veinsmobility 	totalCO2Emission 	156.81013992816
scalar MyScenario.node[114].appl 	generatedWSMs 	0
scalar MyScenario.node[114].appl 	receivedWSMs 	0
scalar MyScenario.node[114].appl 	generatedBSMs 	0
scalar MyScenario.node[114].appl 	receivedBSMs 	0
scalar MyScenario.node[114].appl 	generatedWSAs 	0
scalar MyScenario.node[114].appl 	receivedWSAs 	0
scalar MyScenario.node[114].nic.phy80211p 	busyTime 	1.7846153846154e-05
scalar MyScenario.node[114].nic.mac1609_4 	ReceivedUnicastPackets 	0
scalar MyScenario.node[114].nic.mac1609_4 	ReceivedBroadcasts 	0
scalar MyScenario.node[114].nic.mac1609_4 	SentPackets 	0
scalar MyScenario.node[114].nic.mac1609_4 	SNIRLostPackets 	4
scalar MyScenario.node[114].nic.mac1609_4 	RXTXLostPackets 	0
scalar MyScenario.node[114].nic.mac1609_4 	TotalLostPackets 	4
scalar MyScenario.node[114].nic.mac1609_4 	DroppedPacketsInMac 	0
scalar MyScenario.node[114].nic.mac1609_4 	TooLittleTime 	0
scalar MyScenario.node[114].nic.mac1609_4 	TimesIntoBackoff 	0
scalar MyScenario.node[114].nic.mac1609_4 	SlotsBackoff 	0
scalar MyScenario.node[114].nic.mac1609_4 	NumInternalContention 	0
scalar MyScenario.node[114].nic.mac1609_4 	totalBusyTime 	0.000464
scalar MyScenario.node[114].veinsmobility 	startTime 	1
scalar MyScenario.node[114].veinsmobility 	totalTime 	51
scalar MyScenario.node[114].veinsmobility 	stopTime 	53
scalar MyScenario.node[114].veinsmobility 	minSpeed 	2.5928338611498
scalar MyScenario.node[114].veinsmobility 	maxSpeed 	13.893881590734
scalar MyScenario.node[114].veinsmobility 	totalDistance 	569.7449280759
scalar MyScenario.node[114].veinsmobility 	totalCO2Emission 	170.19274343818
scalar MyScenario.node[170].appl 	generatedWSMs 	0
scalar MyScenario.node[170].appl 	receivedWSMs 	0
scalar MyScenario.node[170].appl 	generatedBSMs 	0
scalar MyScenario.node[170].appl 	receivedBSMs 	0
scalar MyScenario.node[170].appl 	generatedWSAs 	0
scalar MyScenario.node[170].appl 	receivedWSAs 	0
scalar MyScenario.node[170].nic.phy80211p 	busyTime 	9.8153846153846e-05
scalar MyScenario.node[170].nic.mac1609_4 	ReceivedUnicastPackets 	0
scalar MyScenario.node[170].nic.mac1609_4 	ReceivedBroadcasts 	0
scalar MyScenario.node[170].nic.mac1609_4 	SentPackets 	0
scalar MyScenario.node[170].nic.mac1609_4 	SNIRLostPackets 	22
scalar MyScenario.node[170].nic.mac1609_4 	RXTXLostPackets 	0
scalar MyScenario.node[170].nic.mac1609_4 	TotalLostPackets 	22
scalar MyScenario.node[170].nic.mac1609_4 	DroppedPacketsInMac 	0
scalar MyScenario.node[170].nic.mac1609_4 	TooLittleTime 	0
scalar MyScenario.node[170].nic.mac1609_4 	TimesIntoBackoff 	0
scalar MyScenario.node[170].nic.mac1609_4 	SlotsBackoff 	0
scalar MyScenario.node[170].nic.mac1609_4 	NumInternalContention 	0
scalar MyScenario.node[170].nic.mac1609_4 	totalBusyTime 	0.00116
scalar MyScenario.node[170].veinsmobility 	startTime 	1
scalar MyScenario.node[170].veinsmobility 	totalTime 	51
scalar MyScenario.node[170].veinsmobility 	stopTime 	53
scalar MyScenario.node[170].veinsmobility 	minSpeed 	2.394787311228
scalar MyScenario.node[170].veinsmobility 	maxSpeed 	13.889111564751
scalar MyScenario.node[170].veinsmobility 	totalDistance 	577.46361145366
scalar MyScenario.node[170].veinsmobility 	totalCO2Emission 	171.09416123893
scalar MyScenario.node[187].appl 	generatedWSMs 	0
scalar MyScenario.node[187].appl 	receivedWSMs 	0
scalar MyScenario.node[187].appl 	generatedBSMs 	0
scalar MyScenario.node[187].appl 	receivedBSMs 	0
scalar MyScenario.node[187].appl 	generatedWSAs 	0
scalar MyScenario.node[187].appl 	receivedWSAs 	0
scalar MyScenario.node[187].nic.phy80211p 	busyTime 	0
scalar MyScenario.node[187].nic.mac1609_4 	ReceivedUnicastPackets 	0
scalar MyScenario.node[187].nic.mac1609_4 	ReceivedBroadcasts 	0
scalar MyScenario.node[187].nic.mac1609_4 	SentPackets 	0
scalar MyScenario.node[187].nic.mac1609_4 	SNIRLostPackets 	0
scalar MyScenario.node[187].nic.mac1609_4 	RXTXLostPackets 	0
scalar MyScenario.node[187].nic.mac1609_4 	TotalLostPackets 	0
scalar MyScenario.node[187].nic.mac1609_4 	DroppedPacketsInMac 	0
scalar MyScenario.node[187].nic.mac1609_4 	TooLittleTime 	0
scalar MyScenario.node[187].nic.mac1609_4 	TimesIntoBackoff 	0
scalar MyScenario.node[187].nic.mac1609_4 	SlotsBackoff 	0
scalar MyScenario.node[187].nic.mac1609_4 	NumInternalContention 	0
scalar MyScenario.node[187].nic.mac1609_4 	totalBusyTime 	0
scalar MyScenario.node[187].veinsmobility 	startTime 	1
scalar MyScenario.node[187].veinsmobility 	totalTime 	52
scalar MyScenario.node[187].veinsmobility 	stopTime 	54
scalar MyScenario.node[187].veinsmobility 	minSpeed 	8.7836506228364e-07
scalar MyScenario.node[187].veinsmobility 	maxSpeed 	13.830951931654
scalar MyScenario.node[187].veinsmobility 	totalDistance 	466.59431059074
scalar MyScenario.node[187].veinsmobility 	totalCO2Emission 	148.79224987963
scalar MyScenario.node[173].appl 	generatedWSMs 	0
scalar MyScenario.node[173].appl 	receivedWSMs 	0
scalar MyScenario.node[173].appl 	generatedBSMs 	0
scalar MyScenario.node[173].appl 	receivedBSMs 	0
scalar MyScenario.node[173].appl 	generatedWSAs 	0
scalar MyScenario.node[173].appl 	receivedWSAs 	0
scalar MyScenario.node[173].nic.phy80211p 	busyTime 	0
scalar MyScenario.node[173].nic.mac1609_4 	ReceivedUnicastPackets 	0
scalar MyScenario.node[173].nic.mac1609_4 	ReceivedBroadcasts 	0
scalar MyScenario.node[173].nic.mac1609_4 	SentPackets 	0
scalar MyScenario.node[173].nic.mac1609_4 	SNIRLostPackets 	0
scalar MyScenario.node[173].nic.mac1609_4 	RXTXLostPackets 	0
scalar MyScenario.node[173].nic.mac1609_4 	TotalLostPackets 	0
scalar MyScenario.node[173].nic.mac1609_4 	DroppedPacketsInMac 	0
scalar MyScenario.node[173].nic.mac1609_4 	TooLittleTime 	0
scalar MyScenario.node[173].nic.mac1609_4 	TimesIntoBackoff 	0
scalar MyScenario.node[173].nic.mac1609_4 	SlotsBackoff 	0
scalar MyScenario.node[173].nic.mac1609_4 	NumInternalContention 	0
scalar MyScenario.node[173].nic.mac1609_4 	totalBusyTime 	0
scalar MyScenario.node[173].veinsmobility 	startTime 	1
scalar MyScenario.node[173].veinsmobility 	totalTime 	52
scalar MyScenario.node[173].veinsmobility 	stopTime 	54
scalar MyScenario.node[173].veinsmobility 	minSpeed 	0.90606344669002
scalar MyScenario.node[173].veinsmobility 	maxSpeed 	13.819213446113
scalar MyScenario.node[173].veinsmobility 	totalDistance 	564.27324039756
scalar MyScenario.node[173].veinsmobility 	totalCO2Emission 	163.31870763912
scalar MyScenario.node[198].appl 	generatedWSMs 	0
scalar MyScenario.node[198].appl 	receivedWSMs 	0
scalar MyScenario.node[198].appl 	generatedBSMs 	0
scalar MyScenario.node[198].appl 	receivedBSMs 	0
scalar MyScenario.node[198].appl 	generatedWSAs 	0
scalar MyScenario.node[198].appl 	receivedWSAs 	0
scalar MyScenario.node[198].nic.phy80211p 	busyTime 	0
scalar MyScenario.node[198].nic.mac1609_4 	ReceivedUnicastPackets 	0
scalar MyScenario.node[198].nic.mac1609_4 	ReceivedBroadcasts 	0
scalar MyScenario.node[198].nic.mac1609_4 	SentPackets 	0
scalar MyScenario.node[198].nic.mac1609_4 	SNIRLostPackets 	0
scalar MyScenario.node[198].nic.mac1609_4 	RXTXLostPackets 	0
scalar MyScenario.node[198].nic.mac1609_4 	TotalLostPackets 	0
scalar MyScenario.node[198].nic.mac1609_4 	DroppedPacketsInMac 	0
scalar MyScenario.node[198].nic.mac1609_4 	TooLittleTime 	0
scalar MyScenario.node[198].nic.mac1609_4 	TimesIntoBackoff 	0
scalar MyScenario.node[198].nic.mac1609_4 	SlotsBackoff 	0
scalar MyScenario.node[198].nic.mac1609_4 	NumInternalContention 	0
scalar MyScenario.node[198].nic.mac1609_4 	totalBusyTime 	0
scalar MyScenario.node[198].veinsmobility 	startTime 	1
scalar MyScenario.node[198].veinsmobility 	totalTime 	52
scalar MyScenario.node[198].veinsmobility 	stopTime 	54
scalar MyScenario.node[198].veinsmobility 	minSpeed 	2.2887930462553e-12
scalar MyScenario.node[198].veinsmobility 	maxSpeed 	13.688829393405
scalar MyScenario.node[198].veinsmobility 	totalDistance 	383.28989387832
scalar MyScenario.node[198].veinsmobility 	totalCO2Emission 	135.10258645929
scalar MyScenario.node[213].appl 	generatedWSMs 	1
scalar MyScenario.node[213].appl 	receivedWSMs 	5
scalar MyScenario.node[213].appl 	generatedBSMs 	0
scalar MyScenario.node[213].appl 	receivedBSMs 	0
scalar MyScenario.node[213].appl 	generatedWSAs 	0
scalar MyScenario.node[213].appl 	receivedWSAs 	0
scalar MyScenario.node[213].nic.phy80211p 	busyTime 	8.352e-05
scalar MyScenario.node[213].nic.mac1609_4 	ReceivedUnicastPackets 	0
scalar MyScenario.node[213].nic.mac1609_4 	ReceivedBroadcasts 	5
scalar MyScenario.node[213].nic.mac1609_4 	SentPackets 	1
scalar MyScenario.node[213].nic.mac1609_4 	SNIRLostPackets 	13
scalar MyScenario.node[213].nic.mac1609_4 	RXTXLostPackets 	2
scalar MyScenario.node[213].nic.mac1609_4 	TotalLostPackets 	15
scalar MyScenario.node[213].nic.mac1609_4 	DroppedPacketsInMac 	0
[...]
scalar MyScenario.node[188].nic.mac1609_4 	ReceivedBroadcasts 	0
scalar MyScenario.node[188].nic.mac1609_4 	SentPackets 	0
scalar MyScenario.node[188].nic.mac1609_4 	SNIRLostPackets 	0
scalar MyScenario.node[188].nic.mac1609_4 	RXTXLostPackets 	0
scalar MyScenario.node[188].nic.mac1609_4 	TotalLostPackets 	0
scalar MyScenario.node[188].nic.mac1609_4 	DroppedPacketsInMac 	0
scalar MyScenario.node[188].nic.mac1609_4 	TooLittleTime 	0
scalar MyScenario.node[188].nic.mac1609_4 	TimesIntoBackoff 	0
scalar MyScenario.node[188].nic.mac1609_4 	SlotsBackoff 	0
scalar MyScenario.node[188].nic.mac1609_4 	NumInternalContention 	0
scalar MyScenario.node[188].nic.mac1609_4 	totalBusyTime 	0
scalar MyScenario.node[188].veinsmobility 	startTime 	1
scalar MyScenario.node[188].veinsmobility 	totalTime 	156
scalar MyScenario.node[188].veinsmobility 	stopTime 	158
scalar MyScenario.node[188].veinsmobility 	minSpeed 	0
scalar MyScenario.node[188].veinsmobility 	maxSpeed 	13.870141360234
scalar MyScenario.node[188].veinsmobility 	totalDistance 	772.3548753558
scalar MyScenario.node[188].veinsmobility 	totalCO2Emission 	309.97671305071
scalar MyScenario.node[181].appl 	generatedWSMs 	0
scalar MyScenario.node[181].appl 	receivedWSMs 	0
scalar MyScenario.node[181].appl 	generatedBSMs 	0
scalar MyScenario.node[181].appl 	receivedBSMs 	0
scalar MyScenario.node[181].appl 	generatedWSAs 	0
scalar MyScenario.node[181].appl 	receivedWSAs 	0
scalar MyScenario.node[181].nic.phy80211p 	busyTime 	0
scalar MyScenario.node[181].nic.mac1609_4 	ReceivedUnicastPackets 	0
scalar MyScenario.node[181].nic.mac1609_4 	ReceivedBroadcasts 	0
scalar MyScenario.node[181].nic.mac1609_4 	SentPackets 	0
scalar MyScenario.node[181].nic.mac1609_4 	SNIRLostPackets 	0
scalar MyScenario.node[181].nic.mac1609_4 	RXTXLostPackets 	0
scalar MyScenario.node[181].nic.mac1609_4 	TotalLostPackets 	0
scalar MyScenario.node[181].nic.mac1609_4 	DroppedPacketsInMac 	0
scalar MyScenario.node[181].nic.mac1609_4 	TooLittleTime 	0
scalar MyScenario.node[181].nic.mac1609_4 	TimesIntoBackoff 	0
scalar MyScenario.node[181].nic.mac1609_4 	SlotsBackoff 	0
scalar MyScenario.node[181].nic.mac1609_4 	NumInternalContention 	0
scalar MyScenario.node[181].nic.mac1609_4 	totalBusyTime 	0
scalar MyScenario.node[181].veinsmobility 	startTime 	1
scalar MyScenario.node[181].veinsmobility 	totalTime 	160
scalar MyScenario.node[181].veinsmobility 	stopTime 	162
scalar MyScenario.node[181].veinsmobility 	minSpeed 	6.2981375661979e-16
scalar MyScenario.node[181].veinsmobility 	maxSpeed 	13.875846317015
scalar MyScenario.node[181].veinsmobility 	totalDistance 	869.54053421531
scalar MyScenario.node[181].veinsmobility 	totalCO2Emission 	368.09082720306
scalar MyScenario.node[276].appl 	generatedWSMs 	0
scalar MyScenario.node[276].appl 	receivedWSMs 	0
scalar MyScenario.node[276].appl 	generatedBSMs 	0
scalar MyScenario.node[276].appl 	receivedBSMs 	0
scalar MyScenario.node[276].appl 	generatedWSAs 	0
scalar MyScenario.node[276].appl 	receivedWSAs 	0
scalar MyScenario.node[276].nic.phy80211p 	busyTime 	0
scalar MyScenario.node[276].nic.mac1609_4 	ReceivedUnicastPackets 	0
scalar MyScenario.node[276].nic.mac1609_4 	ReceivedBroadcasts 	0
scalar MyScenario.node[276].nic.mac1609_4 	SentPackets 	0
scalar MyScenario.node[276].nic.mac1609_4 	SNIRLostPackets 	0
scalar MyScenario.node[276].nic.mac1609_4 	RXTXLostPackets 	0
scalar MyScenario.node[276].nic.mac1609_4 	TotalLostPackets 	0
scalar MyScenario.node[276].nic.mac1609_4 	DroppedPacketsInMac 	0
scalar MyScenario.node[276].nic.mac1609_4 	TooLittleTime 	0
scalar MyScenario.node[276].nic.mac1609_4 	TimesIntoBackoff 	0
scalar MyScenario.node[276].nic.mac1609_4 	SlotsBackoff 	0
scalar MyScenario.node[276].nic.mac1609_4 	NumInternalContention 	0
scalar MyScenario.node[276].nic.mac1609_4 	totalBusyTime 	0
scalar MyScenario.node[276].veinsmobility 	startTime 	7
scalar MyScenario.node[276].veinsmobility 	totalTime 	154
scalar MyScenario.node[276].veinsmobility 	stopTime 	162
scalar MyScenario.node[276].veinsmobility 	minSpeed 	2.4348384027787e-15
scalar MyScenario.node[276].veinsmobility 	maxSpeed 	13.884828994353
scalar MyScenario.node[276].veinsmobility 	totalDistance 	1167.2507379953
scalar MyScenario.node[276].veinsmobility 	totalCO2Emission 	451.78101909751
scalar MyScenario.node[147].appl 	generatedWSMs 	0
scalar MyScenario.node[147].appl 	receivedWSMs 	0
scalar MyScenario.node[147].appl 	generatedBSMs 	0
scalar MyScenario.node[147].appl 	receivedBSMs 	0
scalar MyScenario.node[147].appl 	generatedWSAs 	0
scalar MyScenario.node[147].appl 	receivedWSAs 	0
scalar MyScenario.node[147].nic.phy80211p 	busyTime 	1.7291925465839e-05
scalar MyScenario.node[147].nic.mac1609_4 	ReceivedUnicastPackets 	0
scalar MyScenario.node[147].nic.mac1609_4 	ReceivedBroadcasts 	0
scalar MyScenario.node[147].nic.mac1609_4 	SentPackets 	0
scalar MyScenario.node[147].nic.mac1609_4 	SNIRLostPackets 	12
scalar MyScenario.node[147].nic.mac1609_4 	RXTXLostPackets 	0
scalar MyScenario.node[147].nic.mac1609_4 	TotalLostPackets 	12
scalar MyScenario.node[147].nic.mac1609_4 	DroppedPacketsInMac 	0
scalar MyScenario.node[147].nic.mac1609_4 	TooLittleTime 	0
scalar MyScenario.node[147].nic.mac1609_4 	TimesIntoBackoff 	0
scalar MyScenario.node[147].nic.mac1609_4 	SlotsBackoff 	0
scalar MyScenario.node[147].nic.mac1609_4 	NumInternalContention 	0
scalar MyScenario.node[147].nic.mac1609_4 	totalBusyTime 	0.000696
scalar MyScenario.node[147].veinsmobility 	startTime 	1
scalar MyScenario.node[147].veinsmobility 	totalTime 	160
scalar MyScenario.node[147].veinsmobility 	stopTime 	162
scalar MyScenario.node[147].veinsmobility 	minSpeed 	1.9294252500859e-05
scalar MyScenario.node[147].veinsmobility 	maxSpeed 	13.869954825612
scalar MyScenario.node[147].veinsmobility 	totalDistance 	1674.699266285
scalar MyScenario.node[147].veinsmobility 	totalCO2Emission 	490.87072098136
scalar MyScenario.node[297].appl 	generatedWSMs 	0
scalar MyScenario.node[297].appl 	receivedWSMs 	0
scalar MyScenario.node[297].appl 	generatedBSMs 	0
scalar MyScenario.node[297].appl 	receivedBSMs 	0
scalar MyScenario.node[297].appl 	generatedWSAs 	0
scalar MyScenario.node[297].appl 	receivedWSAs 	0
scalar MyScenario.node[297].nic.phy80211p 	busyTime 	4.5490196078431e-06
scalar MyScenario.node[297].nic.mac1609_4 	ReceivedUnicastPackets 	0
scalar MyScenario.node[297].nic.mac1609_4 	ReceivedBroadcasts 	0
scalar MyScenario.node[297].nic.mac1609_4 	SentPackets 	0
scalar MyScenario.node[297].nic.mac1609_4 	SNIRLostPackets 	3
scalar MyScenario.node[297].nic.mac1609_4 	RXTXLostPackets 	0
scalar MyScenario.node[297].nic.mac1609_4 	TotalLostPackets 	3
scalar MyScenario.node[297].nic.mac1609_4 	DroppedPacketsInMac 	0
scalar MyScenario.node[297].nic.mac1609_4 	TooLittleTime 	0
scalar MyScenario.node[297].nic.mac1609_4 	TimesIntoBackoff 	0
scalar MyScenario.node[297].nic.mac1609_4 	SlotsBackoff 	0
scalar MyScenario.node[297].nic.mac1609_4 	NumInternalContention 	0
scalar MyScenario.node[297].nic.mac1609_4 	totalBusyTime 	0.000232
scalar MyScenario.node[297].veinsmobility 	startTime 	10
scalar MyScenario.node[297].veinsmobility 	totalTime 	152
scalar MyScenario.node[297].veinsmobility 	stopTime 	163
scalar MyScenario.node[297].veinsmobility 	minSpeed 	2.4976134337263e-11
scalar MyScenario.node[297].veinsmobility 	maxSpeed 	13.876407741196
scalar MyScenario.node[297].veinsmobility 	totalDistance 	1067.3872786853
scalar MyScenario.node[297].veinsmobility 	totalCO2Emission 	386.05705846114
scalar MyScenario.node[66].appl 	generatedWSMs 	0
scalar MyScenario.node[66].appl 	receivedWSMs 	0
scalar MyScenario.node[66].appl 	generatedBSMs 	0
scalar MyScenario.node[66].appl 	receivedBSMs 	0
scalar MyScenario.node[66].appl 	generatedWSAs 	0
scalar MyScenario.node[66].appl 	receivedWSAs 	0
scalar MyScenario.node[66].nic.phy80211p 	busyTime 	0
scalar MyScenario.node[66].nic.mac1609_4 	ReceivedUnicastPackets 	0
scalar MyScenario.node[66].nic.mac1609_4 	ReceivedBroadcasts 	0
scalar MyScenario.node[66].nic.mac1609_4 	SentPackets 	0
scalar MyScenario.node[66].nic.mac1609_4 	SNIRLostPackets 	0
scalar MyScenario.node[66].nic.mac1609_4 	RXTXLostPackets 	0
scalar MyScenario.node[66].nic.mac1609_4 	TotalLostPackets 	0
scalar MyScenario.node[66].nic.mac1609_4 	DroppedPacketsInMac 	0
scalar MyScenario.node[66].nic.mac1609_4 	TooLittleTime 	0
scalar MyScenario.node[66].nic.mac1609_4 	TimesIntoBackoff 	0
scalar MyScenario.node[66].nic.mac1609_4 	SlotsBackoff 	0
scalar MyScenario.node[66].nic.mac1609_4 	NumInternalContention 	0
scalar MyScenario.node[66].nic.mac1609_4 	totalBusyTime 	0
scalar MyScenario.node[66].veinsmobility 	startTime 	1
scalar MyScenario.node[66].veinsmobility 	totalTime 	163
scalar MyScenario.node[66].veinsmobility 	stopTime 	165
scalar MyScenario.node[66].veinsmobility 	minSpeed 	6.2719138472194e-16
scalar MyScenario.node[66].veinsmobility 	maxSpeed 	13.871264058165
scalar MyScenario.node[66].veinsmobility 	totalDistance 	964.11320693388
scalar MyScenario.node[66].veinsmobility 	totalCO2Emission 	395.83263504547
scalar MyScenario.node[266].appl 	generatedWSMs 	0
scalar MyScenario.node[266].appl 	receivedWSMs 	0
scalar MyScenario.node[266].appl 	generatedBSMs 	0
scalar MyScenario.node[266].appl 	receivedBSMs 	0
scalar MyScenario.node[266].appl 	generatedWSAs 	0
scalar MyScenario.node[266].appl 	receivedWSAs 	0
scalar MyScenario.node[266].nic.phy80211p 	busyTime 	0
scalar MyScenario.node[266].nic.mac1609_4 	ReceivedUnicastPackets 	0
scalar MyScenario.node[266].nic.mac1609_4 	ReceivedBroadcasts 	0
scalar MyScenario.node[266].nic.mac1609_4 	SentPackets 	0
scalar MyScenario.node[266].nic.mac1609_4 	SNIRLostPackets 	0
scalar MyScenario.node[266].nic.mac1609_4 	RXTXLostPackets 	0
scalar MyScenario.node[266].nic.mac1609_4 	TotalLostPackets 	0
scalar MyScenario.node[266].nic.mac1609_4 	DroppedPacketsInMac 	0
scalar MyScenario.node[266].nic.mac1609_4 	TooLittleTime 	0
scalar MyScenario.node[266].nic.mac1609_4 	TimesIntoBackoff 	0
scalar MyScenario.node[266].nic.mac1609_4 	SlotsBackoff 	0
scalar MyScenario.node[266].nic.mac1609_4 	NumInternalContention 	0
scalar MyScenario.node[266].nic.mac1609_4 	totalBusyTime 	0
scalar MyScenario.node[266].veinsmobility 	startTime 	4
scalar MyScenario.node[266].veinsmobility 	totalTime 	160
scalar MyScenario.node[266].veinsmobility 	stopTime 	165
scalar MyScenario.node[266].veinsmobility 	minSpeed 	9.0443591360027e-07
scalar MyScenario.node[266].veinsmobility 	maxSpeed 	13.899962934433
scalar MyScenario.node[266].veinsmobility 	totalDistance 	1474.4878657788
scalar MyScenario.node[266].veinsmobility 	totalCO2Emission 	451.54925257624
scalar MyScenario.node[261].appl 	generatedWSMs 	0
scalar MyScenario.node[261].appl 	receivedWSMs 	0
scalar MyScenario.node[261].appl 	generatedBSMs 	0
scalar MyScenario.node[261].appl 	receivedBSMs 	0
scalar MyScenario.node[261].appl 	generatedWSAs 	0
scalar MyScenario.node[261].appl 	receivedWSAs 	0
scalar MyScenario.node[261].nic.phy80211p 	busyTime 	0
scalar MyScenario.node[261].nic.mac1609_4 	ReceivedUnicastPackets 	0
scalar MyScenario.node[261].nic.mac1609_4 	ReceivedBroadcasts 	0
scalar MyScenario.node[261].nic.mac1609_4 	SentPackets 	0
scalar MyScenario.node[261].nic.mac1609_4 	SNIRLostPackets 	0
scalar MyScenario.node[261].nic.mac1609_4 	RXTXLostPackets 	0
scalar MyScenario.node[261].nic.mac1609_4 	TotalLostPackets 	0
scalar MyScenario.node[261].nic.mac1609_4 	DroppedPacketsInMac 	0
scalar MyScenario.node[261].nic.mac1609_4 	TooLittleTime 	0
scalar MyScenario.node[261].nic.mac1609_4 	TimesIntoBackoff 	0
scalar MyScenario.node[261].nic.mac1609_4 	SlotsBackoff 	0
scalar MyScenario.node[261].nic.mac1609_4 	NumInternalContention 	0
scalar MyScenario.node[261].nic.mac1609_4 	totalBusyTime 	0
scalar MyScenario.node[261].veinsmobility 	startTime 	4
scalar MyScenario.node[261].veinsmobility 	totalTime 	168
scalar MyScenario.node[261].veinsmobility 	stopTime 	173
scalar MyScenario.node[261].veinsmobility 	minSpeed 	0
scalar MyScenario.node[261].veinsmobility 	maxSpeed 	13.807594643207
scalar MyScenario.node[261].veinsmobility 	totalDistance 	871.20642712959
scalar MyScenario.node[261].veinsmobility 	totalCO2Emission 	410.43710633272
scalar MyScenario.node[253].appl 	generatedWSMs 	0
scalar MyScenario.node[253].appl 	receivedWSMs 	0
scalar MyScenario.node[253].appl 	generatedBSMs 	0
scalar MyScenario.node[253].appl 	receivedBSMs 	0
scalar MyScenario.node[253].appl 	generatedWSAs 	0
scalar MyScenario.node[253].appl 	receivedWSAs 	0
scalar MyScenario.node[253].nic.phy80211p 	busyTime 	0
scalar MyScenario.node[253].nic.mac1609_4 	ReceivedUnicastPackets 	0
scalar MyScenario.node[253].nic.mac1609_4 	ReceivedBroadcasts 	0
scalar MyScenario.node[253].nic.mac1609_4 	SentPackets 	0
scalar MyScenario.node[253].nic.mac1609_4 	SNIRLostPackets 	0
scalar MyScenario.node[253].nic.mac1609_4 	RXTXLostPackets 	0
scalar MyScenario.node[253].nic.mac1609_4 	TotalLostPackets 	0
scalar MyScenario.node[253].nic.mac1609_4 	DroppedPacketsInMac 	0
scalar MyScenario.node[253].nic.mac1609_4 	TooLittleTime 	0
scalar MyScenario.node[253].nic.mac1609_4 	TimesIntoBackoff 	0
scalar MyScenario.node[253].nic.mac1609_4 	SlotsBackoff 	0
scalar MyScenario.node[253].nic.mac1609_4 	NumInternalContention 	0
scalar MyScenario.node[253].nic.mac1609_4 	totalBusyTime 	0
scalar MyScenario.node[253].veinsmobility 	startTime 	4
scalar MyScenario.node[253].veinsmobility 	totalTime 	168
scalar MyScenario.node[253].veinsmobility 	stopTime 	173
scalar MyScenario.node[253].veinsmobility 	minSpeed 	2.4205475332486e-15
scalar MyScenario.node[253].veinsmobility 	maxSpeed 	13.886835931474
scalar MyScenario.node[253].veinsmobility 	totalDistance 	981.72116310622
scalar MyScenario.node[253].veinsmobility 	totalCO2Emission 	401.03287515548
scalar MyScenario.node[151].appl 	generatedWSMs 	0
scalar MyScenario.node[151].appl 	receivedWSMs 	0
scalar MyScenario.node[151].appl 	generatedBSMs 	0
scalar MyScenario.node[151].appl 	receivedBSMs 	0
scalar MyScenario.node[151].appl 	generatedWSAs 	0
scalar MyScenario.node[151].appl 	receivedWSAs 	0
scalar MyScenario.node[151].nic.phy80211p 	busyTime 	0
scalar MyScenario.node[151].nic.mac1609_4 	ReceivedUnicastPackets 	0
scalar MyScenario.node[151].nic.mac1609_4 	ReceivedBroadcasts 	0
scalar MyScenario.node[151].nic.mac1609_4 	SentPackets 	0
scalar MyScenario.node[151].nic.mac1609_4 	SNIRLostPackets 	0
scalar MyScenario.node[151].nic.mac1609_4 	RXTXLostPackets 	0
scalar MyScenario.node[151].nic.mac1609_4 	TotalLostPackets 	0
scalar MyScenario.node[151].nic.mac1609_4 	DroppedPacketsInMac 	0
scalar MyScenario.node[151].nic.mac1609_4 	TooLittleTime 	0
scalar MyScenario.node[151].nic.mac1609_4 	TimesIntoBackoff 	0
scalar MyScenario.node[151].nic.mac1609_4 	SlotsBackoff 	0
scalar MyScenario.node[151].nic.mac1609_4 	NumInternalContention 	0
scalar MyScenario.node[151].nic.mac1609_4 	totalBusyTime 	0
scalar MyScenario.node[151].veinsmobility 	startTime 	1
scalar MyScenario.node[151].veinsmobility 	totalTime 	174
scalar MyScenario.node[151].veinsmobility 	stopTime 	176
scalar MyScenario.node[151].veinsmobility 	minSpeed 	0
scalar MyScenario.node[151].veinsmobility 	maxSpeed 	13.874740813114
scalar MyScenario.node[151].veinsmobility 	totalDistance 	969.18271218742
scalar MyScenario.node[151].veinsmobility 	totalCO2Emission 	431.03300001064
scalar MyScenario.node[154].appl 	generatedWSMs 	0
scalar MyScenario.node[154].appl 	receivedWSMs 	0
scalar MyScenario.node[154].appl 	generatedBSMs 	0
scalar MyScenario.node[154].appl 	receivedBSMs 	0
scalar MyScenario.node[154].appl 	generatedWSAs 	0
scalar MyScenario.node[154].appl 	receivedWSAs 	0
scalar MyScenario.node[154].nic.phy80211p 	busyTime 	0
scalar MyScenario.node[154].nic.mac1609_4 	ReceivedUnicastPackets 	0
scalar MyScenario.node[154].nic.mac1609_4 	ReceivedBroadcasts 	0
scalar MyScenario.node[154].nic.mac1609_4 	SentPackets 	0
scalar MyScenario.node[154].nic.mac1609_4 	SNIRLostPackets 	0
scalar MyScenario.node[154].nic.mac1609_4 	RXTXLostPackets 	0
scalar MyScenario.node[154].nic.mac1609_4 	TotalLostPackets 	0
scalar MyScenario.node[154].nic.mac1609_4 	DroppedPacketsInMac 	0
scalar MyScenario.node[154].nic.mac1609_4 	TooLittleTime 	0
scalar MyScenario.node[154].nic.mac1609_4 	TimesIntoBackoff 	0
scalar MyScenario.node[154].nic.mac1609_4 	SlotsBackoff 	0
scalar MyScenario.node[154].nic.mac1609_4 	NumInternalContention 	0
scalar MyScenario.node[154].nic.mac1609_4 	totalBusyTime 	0
scalar MyScenario.node[154].veinsmobility 	startTime 	1
scalar MyScenario.node[154].veinsmobility 	totalTime 	175
scalar MyScenario.node[154].veinsmobility 	stopTime 	177
scalar MyScenario.node[154].veinsmobility 	minSpeed 	2.5240935287196e-15
scalar MyScenario.node[154].veinsmobility 	maxSpeed 	13.873575999099
scalar MyScenario.node[154].veinsmobility 	totalDistance 	1065.7695903402
scalar MyScenario.node[154].veinsmobility 	totalCO2Emission 	414.79801712015
scalar MyScenario.node[11].appl 	generatedWSMs 	0
scalar MyScenario.node[11].appl 	receivedWSMs 	0
scalar MyScenario.node[11].appl 	generatedBSMs 	0
scalar MyScenario.node[11].appl 	receivedBSMs 	0
scalar MyScenario.node[11].appl 	generatedWSAs 	0
scalar MyScenario.node[11].appl 	receivedWSAs 	0
scalar MyScenario.node[11].nic.phy80211p 	busyTime 	0
scalar MyScenario.node[11].nic.mac1609_4 	ReceivedUnicastPackets 	0
scalar MyScenario.node[11].nic.mac1609_4 	ReceivedBroadcasts 	0
scalar MyScenario.node[11].nic.mac1609_4 	SentPackets 	0
scalar MyScenario.node[11].nic.mac1609_4 	SNIRLostPackets 	0
scalar MyScenario.node[11].nic.mac1609_4 	RXTXLostPackets 	0
scalar MyScenario.node[11].nic.mac1609_4 	TotalLostPackets 	0
scalar MyScenario.node[11].nic.mac1609_4 	DroppedPacketsInMac 	0
scalar MyScenario.node[11].nic.mac1609_4 	TooLittleTime 	0
scalar MyScenario.node[11].nic.mac1609_4 	TimesIntoBackoff 	0
scalar MyScenario.node[11].nic.mac1609_4 	SlotsBackoff 	0
scalar MyScenario.node[11].nic.mac1609_4 	NumInternalContention 	0
scalar MyScenario.node[11].nic.mac1609_4 	totalBusyTime 	0
scalar MyScenario.node[11].veinsmobility 	startTime 	1
scalar MyScenario.node[11].veinsmobility 	totalTime 	184
scalar MyScenario.node[11].veinsmobility 	stopTime 	186
scalar MyScenario.node[11].veinsmobility 	minSpeed 	0
scalar MyScenario.node[11].veinsmobility 	maxSpeed 	13.890490454528
scalar MyScenario.node[11].veinsmobility 	totalDistance 	1262.7996306022
scalar MyScenario.node[11].veinsmobility 	totalCO2Emission 	438.30693180199
scalar MyScenario.node[58].appl 	generatedWSMs 	0
scalar MyScenario.node[58].appl 	receivedWSMs 	0
scalar MyScenario.node[58].appl 	generatedBSMs 	0
scalar MyScenario.node[58].appl 	receivedBSMs 	0
scalar MyScenario.node[58].appl 	generatedWSAs 	0
scalar MyScenario.node[58].appl 	receivedWSAs 	0
scalar MyScenario.node[58].nic.phy80211p 	busyTime 	0
scalar MyScenario.node[58].nic.mac1609_4 	ReceivedUnicastPackets 	0
scalar MyScenario.node[58].nic.mac1609_4 	ReceivedBroadcasts 	0
scalar MyScenario.node[58].nic.mac1609_4 	SentPackets 	0
scalar MyScenario.node[58].nic.mac1609_4 	SNIRLostPackets 	0
scalar MyScenario.node[58].nic.mac1609_4 	RXTXLostPackets 	0
scalar MyScenario.node[58].nic.mac1609_4 	TotalLostPackets 	0
scalar MyScenario.node[58].nic.mac1609_4 	DroppedPacketsInMac 	0
scalar MyScenario.node[58].nic.mac1609_4 	TooLittleTime 	0
scalar MyScenario.node[58].nic.mac1609_4 	TimesIntoBackoff 	0
scalar MyScenario.node[58].nic.mac1609_4 	SlotsBackoff 	0
scalar MyScenario.node[58].nic.mac1609_4 	NumInternalContention 	0
scalar MyScenario.node[58].nic.mac1609_4 	totalBusyTime 	0
scalar MyScenario.node[58].veinsmobility 	startTime 	1
scalar MyScenario.node[58].veinsmobility 	totalTime 	194
scalar MyScenario.node[58].veinsmobility 	stopTime 	196
scalar MyScenario.node[58].veinsmobility 	minSpeed 	0
scalar MyScenario.node[58].veinsmobility 	maxSpeed 	13.835382319079
scalar MyScenario.node[58].veinsmobility 	totalDistance 	1263.8313081212
scalar MyScenario.node[58].veinsmobility 	totalCO2Emission 	501.56471896067
