version 2
run General-3-20170829-17:38:45-8100
attr configname General
attr datetime 20170829-17:38:45
attr density 100
attr experiment General
attr inifile omnetpp.ini
attr iterationvars $density=100
attr iterationvars2 "$density=100, $repetition=3"
attr measurement $density=100
attr network com.liborio.pi.MyScenario
attr processid 8100
attr repetition 3
attr replication #3
attr resultdir results
attr runnumber 3
attr seedset 3
param **.coreDebug false
param **.debug false
param *.**.nic.mac1609_4.bitrate 6Mbps
param *.**.nic.mac1609_4.txPower 20mW
param *.**.nic.mac1609_4.useServiceChannel true
param *.**.nic.phy80211p.analogueModels "xmldoc(\"config.xml\")"
param *.**.nic.phy80211p.antenna "xmldoc(\"antenna.xml\", \"/root/Antenna[@id='monopole']\")"
param *.**.nic.phy80211p.decider "xmldoc(\"config.xml\")"
param *.**.nic.phy80211p.sensitivity -84.39dBm
param *.**.nic.phy80211p.thermalNoise -110dBm
param *.**.nic.phy80211p.usePropagationDelay true
param *.**.nic.phy80211p.useThermalNoise true
param *.annotations.draw true
param *.connectionManager.drawMaxIntfDist false
param *.connectionManager.maxInterfDist 2600m
param *.connectionManager.sendDirect true
param *.manager.autoShutdown true
param *.manager.host "\"localhost\""
param *.manager.launchConfig "xmldoc(string(${density = 100, 200, 300, 400})+\"_\"+ string(${repetition})+\".launchd.xml\")"
param *.manager.port 9999
param *.manager.updateInterval 1s
param *.node[*].appl.beaconInterval 1s
param *.node[*].appl.dataOnSch true
param *.node[*].appl.headerLength "80 bit"
param *.node[*].appl.isSource false
param *.node[*].appl.numMsgs 100
param *.node[*].appl.sendBeacons false
param *.node[*].appl.stopTrafficTime 130s
param *.node[*].appl.wsmInterval 3s
param *.node[*].applType "\"Flooding\""
param *.node[*].veinsmobility.x 0
param *.node[*].veinsmobility.y 0
param *.node[*].veinsmobility.z 1.895
param *.node[*].veinsmobilityType.debug true
param *.node[0].appl.isSource true
param *.playgroundSizeX 2500m
param *.playgroundSizeY 2500m
param *.playgroundSizeZ 50m

scalar . 	density 	100
scalar MyScenario.node[81].appl 	generatedWSMs 	0
scalar MyScenario.node[81].appl 	receivedWSMs 	0
scalar MyScenario.node[81].appl 	generatedBSMs 	0
scalar MyScenario.node[81].appl 	receivedBSMs 	0
scalar MyScenario.node[81].appl 	generatedWSAs 	0
scalar MyScenario.node[81].appl 	receivedWSAs 	0
scalar MyScenario.node[81].nic.phy80211p 	busyTime 	0
scalar MyScenario.node[81].nic.mac1609_4 	ReceivedUnicastPackets 	0
scalar MyScenario.node[81].nic.mac1609_4 	ReceivedBroadcasts 	0
scalar MyScenario.node[81].nic.mac1609_4 	SentPackets 	0
scalar MyScenario.node[81].nic.mac1609_4 	SNIRLostPackets 	0
scalar MyScenario.node[81].nic.mac1609_4 	RXTXLostPackets 	0
scalar MyScenario.node[81].nic.mac1609_4 	TotalLostPackets 	0
scalar MyScenario.node[81].nic.mac1609_4 	DroppedPacketsInMac 	0
scalar MyScenario.node[81].nic.mac1609_4 	TooLittleTime 	0
scalar MyScenario.node[81].nic.mac1609_4 	TimesIntoBackoff 	0
scalar MyScenario.node[81].nic.mac1609_4 	SlotsBackoff 	0
scalar MyScenario.node[81].nic.mac1609_4 	NumInternalContention 	0
scalar MyScenario.node[81].nic.mac1609_4 	totalBusyTime 	0
scalar MyScenario.node[81].veinsmobility 	startTime 	1
scalar MyScenario.node[81].veinsmobility 	totalTime 	10
scalar MyScenario.node[81].veinsmobility 	stopTime 	12
scalar MyScenario.node[81].veinsmobility 	minSpeed 	1.8839627243113
scalar MyScenario.node[81].veinsmobility 	maxSpeed 	13.7848487871
scalar MyScenario.node[81].veinsmobility 	totalDistance 	94.84561700908
scalar MyScenario.node[81].veinsmobility 	totalCO2Emission 	42.063322326017
scalar MyScenario.node[83].appl 	generatedWSMs 	0
scalar MyScenario.node[83].appl 	receivedWSMs 	0
scalar MyScenario.node[83].appl 	generatedBSMs 	0
scalar MyScenario.node[83].appl 	receivedBSMs 	0
scalar MyScenario.node[83].appl 	generatedWSAs 	0
scalar MyScenario.node[83].appl 	receivedWSAs 	0
scalar MyScenario.node[83].nic.phy80211p 	busyTime 	0
scalar MyScenario.node[83].nic.mac1609_4 	ReceivedUnicastPackets 	0
scalar MyScenario.node[83].nic.mac1609_4 	ReceivedBroadcasts 	0
scalar MyScenario.node[83].nic.mac1609_4 	SentPackets 	0
scalar MyScenario.node[83].nic.mac1609_4 	SNIRLostPackets 	0
scalar MyScenario.node[83].nic.mac1609_4 	RXTXLostPackets 	0
scalar MyScenario.node[83].nic.mac1609_4 	TotalLostPackets 	0
scalar MyScenario.node[83].nic.mac1609_4 	DroppedPacketsInMac 	0
scalar MyScenario.node[83].nic.mac1609_4 	TooLittleTime 	0
scalar MyScenario.node[83].nic.mac1609_4 	TimesIntoBackoff 	0
scalar MyScenario.node[83].nic.mac1609_4 	SlotsBackoff 	0
scalar MyScenario.node[83].nic.mac1609_4 	NumInternalContention 	0
scalar MyScenario.node[83].nic.mac1609_4 	totalBusyTime 	0
scalar MyScenario.node[83].veinsmobility 	startTime 	1
scalar MyScenario.node[83].veinsmobility 	totalTime 	10
scalar MyScenario.node[83].veinsmobility 	stopTime 	12
scalar MyScenario.node[83].veinsmobility 	minSpeed 	1.9903776809108
scalar MyScenario.node[83].veinsmobility 	maxSpeed 	13.181415567547
scalar MyScenario.node[83].veinsmobility 	totalDistance 	94.93016188651
scalar MyScenario.node[83].veinsmobility 	totalCO2Emission 	37.851587074614
scalar MyScenario.node[71].appl 	generatedWSMs 	1
scalar MyScenario.node[71].appl 	receivedWSMs 	9
scalar MyScenario.node[71].appl 	generatedBSMs 	0
scalar MyScenario.node[71].appl 	receivedBSMs 	0
scalar MyScenario.node[71].appl 	generatedWSAs 	0
scalar MyScenario.node[71].appl 	receivedWSAs 	0
scalar MyScenario.node[71].nic.phy80211p 	busyTime 	0.0001276
scalar MyScenario.node[71].nic.mac1609_4 	ReceivedUnicastPackets 	0
scalar MyScenario.node[71].nic.mac1609_4 	ReceivedBroadcasts 	9
scalar MyScenario.node[71].nic.mac1609_4 	SentPackets 	1
scalar MyScenario.node[71].nic.mac1609_4 	SNIRLostPackets 	2
scalar MyScenario.node[71].nic.mac1609_4 	RXTXLostPackets 	6
scalar MyScenario.node[71].nic.mac1609_4 	TotalLostPackets 	8
scalar MyScenario.node[71].nic.mac1609_4 	DroppedPacketsInMac 	0
scalar MyScenario.node[71].nic.mac1609_4 	TooLittleTime 	0
scalar MyScenario.node[71].nic.mac1609_4 	TimesIntoBackoff 	1
scalar MyScenario.node[71].nic.mac1609_4 	SlotsBackoff 	1
scalar MyScenario.node[71].nic.mac1609_4 	NumInternalContention 	0
scalar MyScenario.node[71].nic.mac1609_4 	totalBusyTime 	0.002553
scalar MyScenario.node[71].veinsmobility 	startTime 	1
scalar MyScenario.node[71].veinsmobility 	totalTime 	19
scalar MyScenario.node[71].veinsmobility 	stopTime 	21
scalar MyScenario.node[71].veinsmobility 	minSpeed 	1.4348189815413
scalar MyScenario.node[71].veinsmobility 	maxSpeed 	13.836226772214
scalar MyScenario.node[71].veinsmobility 	totalDistance 	173.99651940107
scalar MyScenario.node[71].veinsmobility 	totalCO2Emission 	77.132692860671
scalar MyScenario.node[93].appl 	generatedWSMs 	1
scalar MyScenario.node[93].appl 	receivedWSMs 	6
scalar MyScenario.node[93].appl 	generatedBSMs 	0
scalar MyScenario.node[93].appl 	receivedBSMs 	0
scalar MyScenario.node[93].appl 	generatedWSAs 	0
scalar MyScenario.node[93].appl 	receivedWSAs 	0
scalar MyScenario.node[93].nic.phy80211p 	busyTime 	0.00012492307692308
scalar MyScenario.node[93].nic.mac1609_4 	ReceivedUnicastPackets 	0
scalar MyScenario.node[93].nic.mac1609_4 	ReceivedBroadcasts 	6
scalar MyScenario.node[93].nic.mac1609_4 	SentPackets 	1
scalar MyScenario.node[93].nic.mac1609_4 	SNIRLostPackets 	8
scalar MyScenario.node[93].nic.mac1609_4 	RXTXLostPackets 	7
scalar MyScenario.node[93].nic.mac1609_4 	TotalLostPackets 	15
scalar MyScenario.node[93].nic.mac1609_4 	DroppedPacketsInMac 	0
scalar MyScenario.node[93].nic.mac1609_4 	TooLittleTime 	0
scalar MyScenario.node[93].nic.mac1609_4 	TimesIntoBackoff 	1
scalar MyScenario.node[93].nic.mac1609_4 	SlotsBackoff 	0
scalar MyScenario.node[93].nic.mac1609_4 	NumInternalContention 	0
scalar MyScenario.node[93].nic.mac1609_4 	totalBusyTime 	0.002089
scalar MyScenario.node[93].veinsmobility 	startTime 	4
scalar MyScenario.node[93].veinsmobility 	totalTime 	25
scalar MyScenario.node[93].veinsmobility 	stopTime 	30
scalar MyScenario.node[93].veinsmobility 	minSpeed 	1.6365928786807
scalar MyScenario.node[93].veinsmobility 	maxSpeed 	13.770757553936
scalar MyScenario.node[93].veinsmobility 	totalDistance 	266.32615042121
scalar MyScenario.node[93].veinsmobility 	totalCO2Emission 	87.00901240641
scalar MyScenario.node[56].appl 	generatedWSMs 	1
scalar MyScenario.node[56].appl 	receivedWSMs 	8
scalar MyScenario.node[56].appl 	generatedBSMs 	0
scalar MyScenario.node[56].appl 	receivedBSMs 	0
scalar MyScenario.node[56].appl 	generatedWSAs 	0
scalar MyScenario.node[56].appl 	receivedWSAs 	0
scalar MyScenario.node[56].nic.phy80211p 	busyTime 	6.6285714285714e-05
scalar MyScenario.node[56].nic.mac1609_4 	ReceivedUnicastPackets 	0
scalar MyScenario.node[56].nic.mac1609_4 	ReceivedBroadcasts 	8
scalar MyScenario.node[56].nic.mac1609_4 	SentPackets 	1
scalar MyScenario.node[56].nic.mac1609_4 	SNIRLostPackets 	2
scalar MyScenario.node[56].nic.mac1609_4 	RXTXLostPackets 	5
scalar MyScenario.node[56].nic.mac1609_4 	TotalLostPackets 	7
scalar MyScenario.node[56].nic.mac1609_4 	DroppedPacketsInMac 	0
scalar MyScenario.node[56].nic.mac1609_4 	TooLittleTime 	0
scalar MyScenario.node[56].nic.mac1609_4 	TimesIntoBackoff 	1
scalar MyScenario.node[56].nic.mac1609_4 	SlotsBackoff 	2
scalar MyScenario.node[56].nic.mac1609_4 	NumInternalContention 	0
scalar MyScenario.node[56].nic.mac1609_4 	totalBusyTime 	0.002321
scalar MyScenario.node[56].veinsmobility 	startTime 	1
scalar MyScenario.node[56].veinsmobility 	totalTime 	34
scalar MyScenario.node[56].veinsmobility 	stopTime 	36
scalar MyScenario.node[56].veinsmobility 	minSpeed 	2.4367390892236
scalar MyScenario.node[56].veinsmobility 	maxSpeed 	13.820586792007
scalar MyScenario.node[56].veinsmobility 	totalDistance 	377.773428183
scalar MyScenario.node[56].veinsmobility 	totalCO2Emission 	121.3448797931
scalar MyScenario.node[11].appl 	generatedWSMs 	1
scalar MyScenario.node[11].appl 	receivedWSMs 	14
scalar MyScenario.node[11].appl 	generatedBSMs 	0
scalar MyScenario.node[11].appl 	receivedBSMs 	0
scalar MyScenario.node[11].appl 	generatedWSAs 	0
scalar MyScenario.node[11].appl 	receivedWSAs 	0
scalar MyScenario.node[11].nic.phy80211p 	busyTime 	0.00018688888888889
scalar MyScenario.node[11].nic.mac1609_4 	ReceivedUnicastPackets 	0
scalar MyScenario.node[11].nic.mac1609_4 	ReceivedBroadcasts 	14
scalar MyScenario.node[11].nic.mac1609_4 	SentPackets 	1
scalar MyScenario.node[11].nic.mac1609_4 	SNIRLostPackets 	15
scalar MyScenario.node[11].nic.mac1609_4 	RXTXLostPackets 	6
scalar MyScenario.node[11].nic.mac1609_4 	TotalLostPackets 	21
scalar MyScenario.node[11].nic.mac1609_4 	DroppedPacketsInMac 	0
scalar MyScenario.node[11].nic.mac1609_4 	TooLittleTime 	0
scalar MyScenario.node[11].nic.mac1609_4 	TimesIntoBackoff 	1
scalar MyScenario.node[11].nic.mac1609_4 	SlotsBackoff 	1
scalar MyScenario.node[11].nic.mac1609_4 	NumInternalContention 	0
scalar MyScenario.node[11].nic.mac1609_4 	totalBusyTime 	0.004641
scalar MyScenario.node[11].veinsmobility 	startTime 	1
scalar MyScenario.node[11].veinsmobility 	totalTime 	35
scalar MyScenario.node[11].veinsmobility 	stopTime 	37
scalar MyScenario.node[11].veinsmobility 	minSpeed 	1.9359241187572
scalar MyScenario.node[11].veinsmobility 	maxSpeed 	13.803272390575
scalar MyScenario.node[11].veinsmobility 	totalDistance 	377.48286239099
scalar MyScenario.node[11].veinsmobility 	totalCO2Emission 	110.31886520278
scalar MyScenario.node[66].appl 	generatedWSMs 	1
scalar MyScenario.node[66].appl 	receivedWSMs 	10
scalar MyScenario.node[66].appl 	generatedBSMs 	0
scalar MyScenario.node[66].appl 	receivedBSMs 	0
scalar MyScenario.node[66].appl 	generatedWSAs 	0
scalar MyScenario.node[66].appl 	receivedWSAs 	0
scalar MyScenario.node[66].nic.phy80211p 	busyTime 	0.0001972
scalar MyScenario.node[66].nic.mac1609_4 	ReceivedUnicastPackets 	0
scalar MyScenario.node[66].nic.mac1609_4 	ReceivedBroadcasts 	10
scalar MyScenario.node[66].nic.mac1609_4 	SentPackets 	1
scalar MyScenario.node[66].nic.mac1609_4 	SNIRLostPackets 	24
scalar MyScenario.node[66].nic.mac1609_4 	RXTXLostPackets 	0
scalar MyScenario.node[66].nic.mac1609_4 	TotalLostPackets 	24
scalar MyScenario.node[66].nic.mac1609_4 	DroppedPacketsInMac 	0
scalar MyScenario.node[66].nic.mac1609_4 	TooLittleTime 	0
scalar MyScenario.node[66].nic.mac1609_4 	TimesIntoBackoff 	1
scalar MyScenario.node[66].nic.mac1609_4 	SlotsBackoff 	0
scalar MyScenario.node[66].nic.mac1609_4 	NumInternalContention 	0
scalar MyScenario.node[66].nic.mac1609_4 	totalBusyTime 	0.004177
scalar MyScenario.node[66].veinsmobility 	startTime 	1
scalar MyScenario.node[66].veinsmobility 	totalTime 	39
scalar MyScenario.node[66].veinsmobility 	stopTime 	41
scalar MyScenario.node[66].veinsmobility 	minSpeed 	0.11582967613435
scalar MyScenario.node[66].veinsmobility 	maxSpeed 	13.874248291575
scalar MyScenario.node[66].veinsmobility 	totalDistance 	367.73228260752
scalar MyScenario.node[66].veinsmobility 	totalCO2Emission 	137.3130738729
scalar MyScenario.node[77].appl 	generatedWSMs 	1
scalar MyScenario.node[77].appl 	receivedWSMs 	7
scalar MyScenario.node[77].appl 	generatedBSMs 	0
scalar MyScenario.node[77].appl 	receivedBSMs 	0
scalar MyScenario.node[77].appl 	generatedWSAs 	0
scalar MyScenario.node[77].appl 	receivedWSAs 	0
scalar MyScenario.node[77].nic.phy80211p 	busyTime 	0.0001980487804878
scalar MyScenario.node[77].nic.mac1609_4 	ReceivedUnicastPackets 	0
scalar MyScenario.node[77].nic.mac1609_4 	ReceivedBroadcasts 	7
scalar MyScenario.node[77].nic.mac1609_4 	SentPackets 	1
scalar MyScenario.node[77].nic.mac1609_4 	SNIRLostPackets 	28
scalar MyScenario.node[77].nic.mac1609_4 	RXTXLostPackets 	5
scalar MyScenario.node[77].nic.mac1609_4 	TotalLostPackets 	33
scalar MyScenario.node[77].nic.mac1609_4 	DroppedPacketsInMac 	0
scalar MyScenario.node[77].nic.mac1609_4 	TooLittleTime 	0
scalar MyScenario.node[77].nic.mac1609_4 	TimesIntoBackoff 	1
scalar MyScenario.node[77].nic.mac1609_4 	SlotsBackoff 	3
scalar MyScenario.node[77].nic.mac1609_4 	NumInternalContention 	0
scalar MyScenario.node[77].nic.mac1609_4 	totalBusyTime 	0.003945163016
scalar MyScenario.node[77].veinsmobility 	startTime 	1
scalar MyScenario.node[77].veinsmobility 	totalTime 	40
scalar MyScenario.node[77].veinsmobility 	stopTime 	42
scalar MyScenario.node[77].veinsmobility 	minSpeed 	2.0061168105574
scalar MyScenario.node[77].veinsmobility 	maxSpeed 	13.854284999962
scalar MyScenario.node[77].veinsmobility 	totalDistance 	467.56079162483
scalar MyScenario.node[77].veinsmobility 	totalCO2Emission 	129.98087369906
scalar MyScenario.node[1].appl 	generatedWSMs 	0
scalar MyScenario.node[1].appl 	receivedWSMs 	0
scalar MyScenario.node[1].appl 	generatedBSMs 	0
scalar MyScenario.node[1].appl 	receivedBSMs 	0
scalar MyScenario.node[1].appl 	generatedWSAs 	0
scalar MyScenario.node[1].appl 	receivedWSAs 	0
scalar MyScenario.node[1].nic.phy80211p 	busyTime 	2.2634146341463e-05
scalar MyScenario.node[1].nic.mac1609_4 	ReceivedUnicastPackets 	0
scalar MyScenario.node[1].nic.mac1609_4 	ReceivedBroadcasts 	0
scalar MyScenario.node[1].nic.mac1609_4 	SentPackets 	0
scalar MyScenario.node[1].nic.mac1609_4 	SNIRLostPackets 	4
scalar MyScenario.node[1].nic.mac1609_4 	RXTXLostPackets 	0
scalar MyScenario.node[1].nic.mac1609_4 	TotalLostPackets 	4
scalar MyScenario.node[1].nic.mac1609_4 	DroppedPacketsInMac 	0
scalar MyScenario.node[1].nic.mac1609_4 	TooLittleTime 	0
scalar MyScenario.node[1].nic.mac1609_4 	TimesIntoBackoff 	0
scalar MyScenario.node[1].nic.mac1609_4 	SlotsBackoff 	0
scalar MyScenario.node[1].nic.mac1609_4 	NumInternalContention 	0
scalar MyScenario.node[1].nic.mac1609_4 	totalBusyTime 	0.000232
scalar MyScenario.node[1].veinsmobility 	startTime 	1
scalar MyScenario.node[1].veinsmobility 	totalTime 	40
scalar MyScenario.node[1].veinsmobility 	stopTime 	42
scalar MyScenario.node[1].veinsmobility 	minSpeed 	2.2379665308399
scalar MyScenario.node[1].veinsmobility 	maxSpeed 	13.883305275603
scalar MyScenario.node[1].veinsmobility 	totalDistance 	476.49697983745
scalar MyScenario.node[1].veinsmobility 	totalCO2Emission 	119.83953167734
scalar MyScenario.node[84].appl 	generatedWSMs 	0
scalar MyScenario.node[84].appl 	receivedWSMs 	0
scalar MyScenario.node[84].appl 	generatedBSMs 	0
scalar MyScenario.node[84].appl 	receivedBSMs 	0
scalar MyScenario.node[84].appl 	generatedWSAs 	0
scalar MyScenario.node[84].appl 	receivedWSAs 	0
scalar MyScenario.node[84].nic.phy80211p 	busyTime 	3.3142857142857e-05
scalar MyScenario.node[84].nic.mac1609_4 	ReceivedUnicastPackets 	0
scalar MyScenario.node[84].nic.mac1609_4 	ReceivedBroadcasts 	0
scalar MyScenario.node[84].nic.mac1609_4 	SentPackets 	0
scalar MyScenario.node[84].nic.mac1609_4 	SNIRLostPackets 	6
scalar MyScenario.node[84].nic.mac1609_4 	RXTXLostPackets 	0
scalar MyScenario.node[84].nic.mac1609_4 	TotalLostPackets 	6
scalar MyScenario.node[84].nic.mac1609_4 	DroppedPacketsInMac 	0
scalar MyScenario.node[84].nic.mac1609_4 	TooLittleTime 	0
scalar MyScenario.node[84].nic.mac1609_4 	TimesIntoBackoff 	0
scalar MyScenario.node[84].nic.mac1609_4 	SlotsBackoff 	0
scalar MyScenario.node[84].nic.mac1609_4 	NumInternalContention 	0
scalar MyScenario.node[84].nic.mac1609_4 	totalBusyTime 	0.000232
scalar MyScenario.node[84].veinsmobility 	startTime 	1
scalar MyScenario.node[84].veinsmobility 	totalTime 	41
scalar MyScenario.node[84].veinsmobility 	stopTime 	43
scalar MyScenario.node[84].veinsmobility 	minSpeed 	1.7259012178052
scalar MyScenario.node[84].veinsmobility 	maxSpeed 	13.821530886437
scalar MyScenario.node[84].veinsmobility 	totalDistance 	474.13732041788
scalar MyScenario.node[84].veinsmobility 	totalCO2Emission 	131.62668939888
scalar MyScenario.node[24].appl 	generatedWSMs 	0
scalar MyScenario.node[24].appl 	receivedWSMs 	0
scalar MyScenario.node[24].appl 	generatedBSMs 	0
scalar MyScenario.node[24].appl 	receivedBSMs 	0
scalar MyScenario.node[24].appl 	generatedWSAs 	0
scalar MyScenario.node[24].appl 	receivedWSAs 	0
scalar MyScenario.node[24].nic.phy80211p 	busyTime 	5.5238095238095e-06
scalar MyScenario.node[24].nic.mac1609_4 	ReceivedUnicastPackets 	0
scalar MyScenario.node[24].nic.mac1609_4 	ReceivedBroadcasts 	0
scalar MyScenario.node[24].nic.mac1609_4 	SentPackets 	0
scalar MyScenario.node[24].nic.mac1609_4 	SNIRLostPackets 	1
scalar MyScenario.node[24].nic.mac1609_4 	RXTXLostPackets 	0
scalar MyScenario.node[24].nic.mac1609_4 	TotalLostPackets 	1
scalar MyScenario.node[24].nic.mac1609_4 	DroppedPacketsInMac 	0
scalar MyScenario.node[24].nic.mac1609_4 	TooLittleTime 	0
scalar MyScenario.node[24].nic.mac1609_4 	TimesIntoBackoff 	0
scalar MyScenario.node[24].nic.mac1609_4 	SlotsBackoff 	0
scalar MyScenario.node[24].nic.mac1609_4 	NumInternalContention 	0
scalar MyScenario.node[24].nic.mac1609_4 	totalBusyTime 	0.000232
scalar MyScenario.node[24].veinsmobility 	startTime 	1
scalar MyScenario.node[24].veinsmobility 	totalTime 	41
scalar MyScenario.node[24].veinsmobility 	stopTime 	43
scalar MyScenario.node[24].veinsmobility 	minSpeed 	2.3305842577945
scalar MyScenario.node[24].veinsmobility 	maxSpeed 	13.887947824039
scalar MyScenario.node[24].veinsmobility 	totalDistance 	465.27354839396
scalar MyScenario.node[24].veinsmobility 	totalCO2Emission 	143.89447294793
scalar MyScenario.node[36].appl 	generatedWSMs 	1
scalar MyScenario.node[36].appl 	receivedWSMs 	3
scalar MyScenario.node[36].appl 	generatedBSMs 	0
scalar MyScenario.node[36].appl 	receivedBSMs 	0
scalar MyScenario.node[36].appl 	generatedWSAs 	0
scalar MyScenario.node[36].appl 	receivedWSAs 	0
scalar MyScenario.node[36].nic.phy80211p 	busyTime 	0.00013488372093023
scalar MyScenario.node[36].nic.mac1609_4 	ReceivedUnicastPackets 	0
scalar MyScenario.node[36].nic.mac1609_4 	ReceivedBroadcasts 	3
scalar MyScenario.node[36].nic.mac1609_4 	SentPackets 	1
scalar MyScenario.node[36].nic.mac1609_4 	SNIRLostPackets 	22
scalar MyScenario.node[36].nic.mac1609_4 	RXTXLostPackets 	7
scalar MyScenario.node[36].nic.mac1609_4 	TotalLostPackets 	29
scalar MyScenario.node[36].nic.mac1609_4 	DroppedPacketsInMac 	0
scalar MyScenario.node[36].nic.mac1609_4 	TooLittleTime 	0
scalar MyScenario.node[36].nic.mac1609_4 	TimesIntoBackoff 	1
scalar MyScenario.node[36].nic.mac1609_4 	SlotsBackoff 	0
scalar MyScenario.node[36].nic.mac1609_4 	NumInternalContention 	0
scalar MyScenario.node[36].nic.mac1609_4 	totalBusyTime 	0.002785
scalar MyScenario.node[36].veinsmobility 	startTime 	1
scalar MyScenario.node[36].veinsmobility 	totalTime 	42
scalar MyScenario.node[36].veinsmobility 	stopTime 	44
scalar MyScenario.node[36].veinsmobility 	minSpeed 	2.0318194778869
scalar MyScenario.node[36].veinsmobility 	maxSpeed 	13.864071110054
scalar MyScenario.node[36].veinsmobility 	totalDistance 	456.48431005413
scalar MyScenario.node[36].veinsmobility 	totalCO2Emission 	137.92576533192
scalar MyScenario.node[19].appl 	generatedWSMs 	0
scalar MyScenario.node[19].appl 	receivedWSMs 	0
scalar MyScenario.node[19].appl 	generatedBSMs 	0
scalar MyScenario.node[19].appl 	receivedBSMs 	0
scalar MyScenario.node[19].appl 	generatedWSAs 	0
scalar MyScenario.node[19].appl 	receivedWSAs 	0
scalar MyScenario.node[19].nic.phy80211p 	busyTime 	0
scalar MyScenario.node[19].nic.mac1609_4 	ReceivedUnicastPackets 	0
scalar MyScenario.node[19].nic.mac1609_4 	ReceivedBroadcasts 	0
scalar MyScenario.node[19].nic.mac1609_4 	SentPackets 	0
scalar MyScenario.node[19].nic.mac1609_4 	SNIRLostPackets 	0
scalar MyScenario.node[19].nic.mac1609_4 	RXTXLostPackets 	0
scalar MyScenario.node[19].nic.mac1609_4 	TotalLostPackets 	0
scalar MyScenario.node[19].nic.mac1609_4 	DroppedPacketsInMac 	0
scalar MyScenario.node[19].nic.mac1609_4 	TooLittleTime 	0
scalar MyScenario.node[19].nic.mac1609_4 	TimesIntoBackoff 	0
scalar MyScenario.node[19].nic.mac1609_4 	SlotsBackoff 	0
scalar MyScenario.node[19].nic.mac1609_4 	NumInternalContention 	0
scalar MyScenario.node[19].nic.mac1609_4 	totalBusyTime 	0
scalar MyScenario.node[19].veinsmobility 	startTime 	1
scalar MyScenario.node[19].veinsmobility 	totalTime 	42
scalar MyScenario.node[19].veinsmobility 	stopTime 	44
scalar MyScenario.node[19].veinsmobility 	minSpeed 	1.5767199493712
scalar MyScenario.node[19].veinsmobility 	maxSpeed 	13.871098544961
scalar MyScenario.node[19].veinsmobility 	totalDistance 	453.75241274537
scalar MyScenario.node[19].veinsmobility 	totalCO2Emission 	152.58835724941
scalar MyScenario.node[15].appl 	generatedWSMs 	1
scalar MyScenario.node[15].appl 	receivedWSMs 	3
scalar MyScenario.node[15].appl 	generatedBSMs 	0
scalar MyScenario.node[15].appl 	receivedBSMs 	0
scalar MyScenario.node[15].appl 	generatedWSAs 	0
scalar MyScenario.node[15].appl 	receivedWSAs 	0
scalar MyScenario.node[15].nic.phy80211p 	busyTime 	2.6976744186047e-05
scalar MyScenario.node[15].nic.mac1609_4 	ReceivedUnicastPackets 	0
scalar MyScenario.node[15].nic.mac1609_4 	ReceivedBroadcasts 	3
scalar MyScenario.node[15].nic.mac1609_4 	SentPackets 	1
scalar MyScenario.node[15].nic.mac1609_4 	SNIRLostPackets 	2
scalar MyScenario.node[15].nic.mac1609_4 	RXTXLostPackets 	5
scalar MyScenario.node[15].nic.mac1609_4 	TotalLostPackets 	7
scalar MyScenario.node[15].nic.mac1609_4 	DroppedPacketsInMac 	0
scalar MyScenario.node[15].nic.mac1609_4 	TooLittleTime 	0
scalar MyScenario.node[15].nic.mac1609_4 	TimesIntoBackoff 	1
scalar MyScenario.node[15].nic.mac1609_4 	SlotsBackoff 	2
scalar MyScenario.node[15].nic.mac1609_4 	NumInternalContention 	0
scalar MyScenario.node[15].nic.mac1609_4 	totalBusyTime 	0.001161010634
scalar MyScenario.node[15].veinsmobility 	startTime 	1
scalar MyScenario.node[15].veinsmobility 	totalTime 	42
scalar MyScenario.node[15].veinsmobility 	stopTime 	44
scalar MyScenario.node[15].veinsmobility 	minSpeed 	2.0108760105912
scalar MyScenario.node[15].veinsmobility 	maxSpeed 	13.83079879533
scalar MyScenario.node[15].veinsmobility 	totalDistance 	477.33047694233
scalar MyScenario.node[15].veinsmobility 	totalCO2Emission 	141.18285235513
scalar MyScenario.node[78].appl 	generatedWSMs 	0
scalar MyScenario.node[78].appl 	receivedWSMs 	0
scalar MyScenario.node[78].appl 	generatedBSMs 	0
scalar MyScenario.node[78].appl 	receivedBSMs 	0
scalar MyScenario.node[78].appl 	generatedWSAs 	0
scalar MyScenario.node[78].appl 	receivedWSAs 	0
scalar MyScenario.node[78].nic.phy80211p 	busyTime 	3.6909090909091e-05
scalar MyScenario.node[78].nic.mac1609_4 	ReceivedUnicastPackets 	0
scalar MyScenario.node[78].nic.mac1609_4 	ReceivedBroadcasts 	0
scalar MyScenario.node[78].nic.mac1609_4 	SentPackets 	0
scalar MyScenario.node[78].nic.mac1609_4 	SNIRLostPackets 	7
scalar MyScenario.node[78].nic.mac1609_4 	RXTXLostPackets 	0
scalar MyScenario.node[78].nic.mac1609_4 	TotalLostPackets 	7
scalar MyScenario.node[78].nic.mac1609_4 	DroppedPacketsInMac 	0
scalar MyScenario.node[78].nic.mac1609_4 	TooLittleTime 	0
scalar MyScenario.node[78].nic.mac1609_4 	TimesIntoBackoff 	0
scalar MyScenario.node[78].nic.mac1609_4 	SlotsBackoff 	0
scalar MyScenario.node[78].nic.mac1609_4 	NumInternalContention 	0
scalar MyScenario.node[78].nic.mac1609_4 	totalBusyTime 	0.000464
scalar MyScenario.node[78].veinsmobility 	startTime 	1
scalar MyScenario.node[78].veinsmobility 	totalTime 	43
scalar MyScenario.node[78].veinsmobility 	stopTime 	45
scalar MyScenario.node[78].veinsmobility 	minSpeed 	2.0769311649725
scalar MyScenario.node[78].veinsmobility 	maxSpeed 	13.842650213139
scalar MyScenario.node[78].veinsmobility 	totalDistance 	473.59749614344
scalar MyScenario.node[78].veinsmobility 	totalCO2Emission 	138.9100702081
scalar MyScenario.node[32].appl 	generatedWSMs 	0
scalar MyScenario.node[32].appl 	receivedWSMs 	0
scalar MyScenario.node[32].appl 	generatedBSMs 	0
scalar MyScenario.node[32].appl 	receivedBSMs 	0
scalar MyScenario.node[32].appl 	generatedWSAs 	0
scalar MyScenario.node[32].appl 	receivedWSAs 	0
scalar MyScenario.node[32].nic.phy80211p 	busyTime 	0
scalar MyScenario.node[32].nic.mac1609_4 	ReceivedUnicastPackets 	0
scalar MyScenario.node[32].nic.mac1609_4 	ReceivedBroadcasts 	0
scalar MyScenario.node[32].nic.mac1609_4 	SentPackets 	0
scalar MyScenario.node[32].nic.mac1609_4 	SNIRLostPackets 	0
scalar MyScenario.node[32].nic.mac1609_4 	RXTXLostPackets 	0
scalar MyScenario.node[32].nic.mac1609_4 	TotalLostPackets 	0
scalar MyScenario.node[32].nic.mac1609_4 	DroppedPacketsInMac 	0
scalar MyScenario.node[32].nic.mac1609_4 	TooLittleTime 	0
scalar MyScenario.node[32].nic.mac1609_4 	TimesIntoBackoff 	0
scalar MyScenario.node[32].nic.mac1609_4 	SlotsBackoff 	0
scalar MyScenario.node[32].nic.mac1609_4 	NumInternalContention 	0
scalar MyScenario.node[32].nic.mac1609_4 	totalBusyTime 	0
scalar MyScenario.node[32].veinsmobility 	startTime 	1
scalar MyScenario.node[32].veinsmobility 	totalTime 	43
scalar MyScenario.node[32].veinsmobility 	stopTime 	45
scalar MyScenario.node[32].veinsmobility 	minSpeed 	2.5699471608503
scalar MyScenario.node[32].veinsmobility 	maxSpeed 	13.834042305197
scalar MyScenario.node[32].veinsmobility 	totalDistance 	462.77162820698
scalar MyScenario.node[32].veinsmobility 	totalCO2Emission 	151.67853042042
scalar MyScenario.node[69].appl 	generatedWSMs 	0
scalar MyScenario.node[69].appl 	receivedWSMs 	0
scalar MyScenario.node[69].appl 	generatedBSMs 	0
scalar MyScenario.node[69].appl 	receivedBSMs 	0
scalar MyScenario.node[69].appl 	generatedWSAs 	0
scalar MyScenario.node[69].appl 	receivedWSAs 	0
scalar MyScenario.node[69].nic.phy80211p 	busyTime 	0
scalar MyScenario.node[69].nic.mac1609_4 	ReceivedUnicastPackets 	0
scalar MyScenario.node[69].nic.mac1609_4 	ReceivedBroadcasts 	0
scalar MyScenario.node[69].nic.mac1609_4 	SentPackets 	0
scalar MyScenario.node[69].nic.mac1609_4 	SNIRLostPackets 	0
scalar MyScenario.node[69].nic.mac1609_4 	RXTXLostPackets 	0
scalar MyScenario.node[69].nic.mac1609_4 	TotalLostPackets 	0
scalar MyScenario.node[69].nic.mac1609_4 	DroppedPacketsInMac 	0
scalar MyScenario.node[69].nic.mac1609_4 	TooLittleTime 	0
scalar MyScenario.node[69].nic.mac1609_4 	TimesIntoBackoff 	0
scalar MyScenario.node[69].nic.mac1609_4 	SlotsBackoff 	0
scalar MyScenario.node[69].nic.mac1609_4 	NumInternalContention 	0
scalar MyScenario.node[69].nic.mac1609_4 	totalBusyTime 	0
scalar MyScenario.node[69].veinsmobility 	startTime 	1
scalar MyScenario.node[69].veinsmobility 	totalTime 	44
scalar MyScenario.node[69].veinsmobility 	stopTime 	46
scalar MyScenario.node[69].veinsmobility 	minSpeed 	1.6150351807708
scalar MyScenario.node[69].veinsmobility 	maxSpeed 	13.833744952828
scalar MyScenario.node[69].veinsmobility 	totalDistance 	471.81622081967
scalar MyScenario.node[69].veinsmobility 	totalCO2Emission 	149.34671797699
scalar MyScenario.node[96].appl 	generatedWSMs 	0
scalar MyScenario.node[96].appl 	receivedWSMs 	0
scalar MyScenario.node[96].appl 	generatedBSMs 	0
scalar MyScenario.node[96].appl 	receivedBSMs 	0
scalar MyScenario.node[96].appl 	generatedWSAs 	0
scalar MyScenario.node[96].appl 	receivedWSAs 	0
scalar MyScenario.node[96].nic.phy80211p 	busyTime 	0
scalar MyScenario.node[96].nic.mac1609_4 	ReceivedUnicastPackets 	0
scalar MyScenario.node[96].nic.mac1609_4 	ReceivedBroadcasts 	0
scalar MyScenario.node[96].nic.mac1609_4 	SentPackets 	0
scalar MyScenario.node[96].nic.mac1609_4 	SNIRLostPackets 	0
scalar MyScenario.node[96].nic.mac1609_4 	RXTXLostPackets 	0
scalar MyScenario.node[96].nic.mac1609_4 	TotalLostPackets 	0
scalar MyScenario.node[96].nic.mac1609_4 	DroppedPacketsInMac 	0
scalar MyScenario.node[96].nic.mac1609_4 	TooLittleTime 	0
scalar MyScenario.node[96].nic.mac1609_4 	TimesIntoBackoff 	0
scalar MyScenario.node[96].nic.mac1609_4 	SlotsBackoff 	0
scalar MyScenario.node[96].nic.mac1609_4 	NumInternalContention 	0
scalar MyScenario.node[96].nic.mac1609_4 	totalBusyTime 	0
scalar MyScenario.node[96].veinsmobility 	startTime 	4
scalar MyScenario.node[96].veinsmobility 	totalTime 	41
scalar MyScenario.node[96].veinsmobility 	stopTime 	46
scalar MyScenario.node[96].veinsmobility 	minSpeed 	1.8987195480149
scalar MyScenario.node[96].veinsmobility 	maxSpeed 	13.854256143072
scalar MyScenario.node[96].veinsmobility 	totalDistance 	481.72376293488
scalar MyScenario.node[96].veinsmobility 	totalCO2Emission 	120.27512756872
scalar MyScenario.node[87].appl 	generatedWSMs 	1
scalar MyScenario.node[87].appl 	receivedWSMs 	7
scalar MyScenario.node[87].appl 	generatedBSMs 	0
scalar MyScenario.node[87].appl 	receivedBSMs 	0
scalar MyScenario.node[87].appl 	generatedWSAs 	0
scalar MyScenario.node[87].appl 	receivedWSAs 	0
scalar MyScenario.node[87].nic.phy80211p 	busyTime 	8.5739130434783e-05
scalar MyScenario.node[87].nic.mac1609_4 	ReceivedUnicastPackets 	0
scalar MyScenario.node[87].nic.mac1609_4 	ReceivedBroadcasts 	7
scalar MyScenario.node[87].nic.mac1609_4 	SentPackets 	1
scalar MyScenario.node[87].nic.mac1609_4 	SNIRLostPackets 	10
scalar MyScenario.node[87].nic.mac1609_4 	RXTXLostPackets 	7
scalar MyScenario.node[87].nic.mac1609_4 	TotalLostPackets 	17
scalar MyScenario.node[87].nic.mac1609_4 	DroppedPacketsInMac 	0
scalar MyScenario.node[87].nic.mac1609_4 	TooLittleTime 	0
scalar MyScenario.node[87].nic.mac1609_4 	TimesIntoBackoff 	1
scalar MyScenario.node[87].nic.mac1609_4 	SlotsBackoff 	0
scalar MyScenario.node[87].nic.mac1609_4 	NumInternalContention 	0
scalar MyScenario.node[87].nic.mac1609_4 	totalBusyTime 	0.002785138919
scalar MyScenario.node[87].veinsmobility 	startTime 	4
scalar MyScenario.node[87].veinsmobility 	totalTime 	45
scalar MyScenario.node[87].veinsmobility 	stopTime 	50
scalar MyScenario.node[87].veinsmobility 	minSpeed 	2.1219861222897
scalar MyScenario.node[87].veinsmobility 	maxSpeed 	13.859407534753
scalar MyScenario.node[87].veinsmobility 	totalDistance 	483.39907880333
scalar MyScenario.node[87].veinsmobility 	totalCO2Emission 	157.55926647426
scalar MyScenario.node[31].appl 	generatedWSMs 	1
scalar MyScenario.node[31].appl 	receivedWSMs 	20
scalar MyScenario.node[31].appl 	generatedBSMs 	0
scalar MyScenario.node[31].appl 	receivedBSMs 	0
scalar MyScenario.node[31].appl 	generatedWSAs 	0
scalar MyScenario.node[31].appl 	receivedWSAs 	0
scalar MyScenario.node[31].nic.phy80211p 	busyTime 	0.00010261538461538
scalar MyScenario.node[31].nic.mac1609_4 	ReceivedUnicastPackets 	0
scalar MyScenario.node[31].nic.mac1609_4 	ReceivedBroadcasts 	20
scalar MyScenario.node[31].nic.mac1609_4 	SentPackets 	1
scalar MyScenario.node[31].nic.mac1609_4 	SNIRLostPackets 	3
scalar MyScenario.node[31].nic.mac1609_4 	RXTXLostPackets 	1
scalar MyScenario.node[31].nic.mac1609_4 	TotalLostPackets 	4
scalar MyScenario.node[31].nic.mac1609_4 	DroppedPacketsInMac 	0
scalar MyScenario.node[31].nic.mac1609_4 	TooLittleTime 	0
scalar MyScenario.node[31].nic.mac1609_4 	TimesIntoBackoff 	1
scalar MyScenario.node[31].nic.mac1609_4 	SlotsBackoff 	0
scalar MyScenario.node[31].nic.mac1609_4 	NumInternalContention 	0
scalar MyScenario.node[31].nic.mac1609_4 	totalBusyTime 	0.005569
scalar MyScenario.node[31].veinsmobility 	startTime 	1
scalar MyScenario.node[31].veinsmobility 	totalTime 	51
scalar MyScenario.node[31].veinsmobility 	stopTime 	53
scalar MyScenario.node[31].veinsmobility 	minSpeed 	2.5471800411819
scalar MyScenario.node[31].veinsmobility 	maxSpeed 	13.889846250135
scalar MyScenario.node[31].veinsmobility 	totalDistance 	572.3892103535
scalar MyScenario.node[31].veinsmobility 	totalCO2Emission 	164.11552564526
scalar MyScenario.node[16].appl 	generatedWSMs 	0
scalar MyScenario.node[16].appl 	receivedWSMs 	0
scalar MyScenario.node[16].appl 	generatedBSMs 	0
scalar MyScenario.node[16].appl 	receivedBSMs 	0
scalar MyScenario.node[16].appl 	generatedWSAs 	0
scalar MyScenario.node[16].appl 	receivedWSAs 	0
scalar MyScenario.node[16].nic.phy80211p 	busyTime 	0
scalar MyScenario.node[16].nic.mac1609_4 	ReceivedUnicastPackets 	0
scalar MyScenario.node[16].nic.mac1609_4 	ReceivedBroadcasts 	0
scalar MyScenario.node[16].nic.mac1609_4 	SentPackets 	0
scalar MyScenario.node[16].nic.mac1609_4 	SNIRLostPackets 	0
scalar MyScenario.node[16].nic.mac1609_4 	RXTXLostPackets 	0
scalar MyScenario.node[16].nic.mac1609_4 	TotalLostPackets 	0
scalar MyScenario.node[16].nic.mac1609_4 	DroppedPacketsInMac 	0
scalar MyScenario.node[16].nic.mac1609_4 	TooLittleTime 	0
scalar MyScenario.node[16].nic.mac1609_4 	TimesIntoBackoff 	0
scalar MyScenario.node[16].nic.mac1609_4 	SlotsBackoff 	0
scalar MyScenario.node[16].nic.mac1609_4 	NumInternalContention 	0
scalar MyScenario.node[16].nic.mac1609_4 	totalBusyTime 	0
scalar MyScenario.node[16].veinsmobility 	startTime 	1
scalar MyScenario.node[16].veinsmobility 	totalTime 	51
scalar MyScenario.node[16].veinsmobility 	stopTime 	53
scalar MyScenario.node[16].veinsmobility 	minSpeed 	0.21946493337522
scalar MyScenario.node[16].veinsmobility 	maxSpeed 	13.892522891215
scalar MyScenario.node[16].veinsmobility 	totalDistance 	477.85572088806
scalar MyScenario.node[16].veinsmobility 	totalCO2Emission 	178.40287178228
scalar MyScenario.node[79].appl 	generatedWSMs 	1
scalar MyScenario.node[79].appl 	receivedWSMs 	7
scalar MyScenario.node[79].appl 	generatedBSMs 	0
scalar MyScenario.node[79].appl 	receivedBSMs 	0
scalar MyScenario.node[79].appl 	generatedWSAs 	0
scalar MyScenario.node[79].appl 	receivedWSAs 	0
scalar MyScenario.node[79].nic.phy80211p 	busyTime 	0.00010943396226415
scalar MyScenario.node[79].nic.mac1609_4 	ReceivedUnicastPackets 	0
scalar MyScenario.node[79].nic.mac1609_4 	ReceivedBroadcasts 	7
scalar MyScenario.node[79].nic.mac1609_4 	SentPackets 	1
scalar MyScenario.node[79].nic.mac1609_4 	SNIRLostPackets 	18
scalar MyScenario.node[79].nic.mac1609_4 	RXTXLostPackets 	3
scalar MyScenario.node[79].nic.mac1609_4 	TotalLostPackets 	21
scalar MyScenario.node[79].nic.mac1609_4 	DroppedPacketsInMac 	0
scalar MyScenario.node[79].nic.mac1609_4 	TooLittleTime 	0
scalar MyScenario.node[79].nic.mac1609_4 	TimesIntoBackoff 	1
scalar MyScenario.node[79].nic.mac1609_4 	SlotsBackoff 	0
scalar MyScenario.node[79].nic.mac1609_4 	NumInternalContention 	0
scalar MyScenario.node[79].nic.mac1609_4 	totalBusyTime 	0.003249142574
scalar MyScenario.node[79].veinsmobility 	startTime 	1
scalar MyScenario.node[79].veinsmobility 	totalTime 	52
scalar MyScenario.node[79].veinsmobility 	stopTime 	54
scalar MyScenario.node[79].veinsmobility 	minSpeed 	1.1329143552769
scalar MyScenario.node[79].veinsmobility 	maxSpeed 	13.895310574025
scalar MyScenario.node[79].veinsmobility 	totalDistance 	581.67070624958
scalar MyScenario.node[79].veinsmobility 	totalCO2Emission 	165.45963661945
scalar MyScenario.node[68].appl 	generatedWSMs 	1
scalar MyScenario.node[68].appl 	receivedWSMs 	7
scalar MyScenario.node[68].appl 	generatedBSMs 	0
scalar MyScenario.node[68].appl 	receivedBSMs 	0
scalar MyScenario.node[68].appl 	generatedWSAs 	0
scalar MyScenario.node[68].appl 	receivedWSAs 	0
scalar MyScenario.node[68].nic.phy80211p 	busyTime 	0.00010740740740741
scalar MyScenario.node[68].nic.mac1609_4 	ReceivedUnicastPackets 	0
scalar MyScenario.node[68].nic.mac1609_4 	ReceivedBroadcasts 	7
scalar MyScenario.node[68].nic.mac1609_4 	SentPackets 	1
scalar MyScenario.node[68].nic.mac1609_4 	SNIRLostPackets 	18
scalar MyScenario.node[68].nic.mac1609_4 	RXTXLostPackets 	4
scalar MyScenario.node[68].nic.mac1609_4 	TotalLostPackets 	22
scalar MyScenario.node[68].nic.mac1609_4 	DroppedPacketsInMac 	0
scalar MyScenario.node[68].nic.mac1609_4 	TooLittleTime 	0
scalar MyScenario.node[68].nic.mac1609_4 	TimesIntoBackoff 	1
scalar MyScenario.node[68].nic.mac1609_4 	SlotsBackoff 	1
scalar MyScenario.node[68].nic.mac1609_4 	NumInternalContention 	0
scalar MyScenario.node[68].nic.mac1609_4 	totalBusyTime 	0.003017
scalar MyScenario.node[68].veinsmobility 	startTime 	1
scalar MyScenario.node[68].veinsmobility 	totalTime 	53
scalar MyScenario.node[68].veinsmobility 	stopTime 	55
scalar MyScenario.node[68].veinsmobility 	minSpeed 	1.2995648600702
scalar MyScenario.node[68].veinsmobility 	maxSpeed 	13.897453420749
scalar MyScenario.node[68].veinsmobility 	totalDistance 	561.58499202614
scalar MyScenario.node[68].veinsmobility 	totalCO2Emission 	179.10382065193
scalar MyScenario.node[20].appl 	generatedWSMs 	1
scalar MyScenario.node[20].appl 	receivedWSMs 	1
scalar MyScenario.node[20].appl 	generatedBSMs 	0
scalar MyScenario.node[20].appl 	receivedBSMs 	0
scalar MyScenario.node[20].appl 	generatedWSAs 	0
scalar MyScenario.node[20].appl 	receivedWSAs 	0
scalar MyScenario.node[20].nic.phy80211p 	busyTime 	1.2888888888889e-05
scalar MyScenario.node[20].nic.mac1609_4 	ReceivedUnicastPackets 	0
scalar MyScenario.node[20].nic.mac1609_4 	ReceivedBroadcasts 	1
scalar MyScenario.node[20].nic.mac1609_4 	SentPackets 	1
scalar MyScenario.node[20].nic.mac1609_4 	SNIRLostPackets 	2
scalar MyScenario.node[20].nic.mac1609_4 	RXTXLostPackets 	4
scalar MyScenario.node[20].nic.mac1609_4 	TotalLostPackets 	6
scalar MyScenario.node[20].nic.mac1609_4 	DroppedPacketsInMac 	0
scalar MyScenario.node[20].nic.mac1609_4 	TooLittleTime 	0
scalar MyScenario.node[20].nic.mac1609_4 	TimesIntoBackoff 	1
scalar MyScenario.node[20].nic.mac1609_4 	SlotsBackoff 	1
scalar MyScenario.node[20].nic.mac1609_4 	NumInternalContention 	0
scalar MyScenario.node[20].nic.mac1609_4 	totalBusyTime 	0.000697084837
scalar MyScenario.node[20].veinsmobility 	startTime 	1
scalar MyScenario.node[20].veinsmobility 	totalTime 	53
scalar MyScenario.node[20].veinsmobility 	stopTime 	55
scalar MyScenario.node[20].veinsmobility 	minSpeed 	2.0715241078055
scalar MyScenario.node[20].veinsmobility 	maxSpeed 	13.792436829559
scalar MyScenario.node[20].veinsmobility 	totalDistance 	574.46199640376
scalar MyScenario.node[20].veinsmobility 	totalCO2Emission 	175.04502383775
scalar MyScenario.node[85].appl 	generatedWSMs 	1
scalar MyScenario.node[85].appl 	receivedWSMs 	2
scalar MyScenario.node[85].appl 	generatedBSMs 	0
scalar MyScenario.node[85].appl 	receivedBSMs 	0
scalar MyScenario.node[85].appl 	generatedWSAs 	0
scalar MyScenario.node[85].appl 	receivedWSAs 	0
scalar MyScenario.node[85].nic.phy80211p 	busyTime 	6.4444444444444e-05
scalar MyScenario.node[85].nic.mac1609_4 	ReceivedUnicastPackets 	0
scalar MyScenario.node[85].nic.mac1609_4 	ReceivedBroadcasts 	2
scalar MyScenario.node[85].nic.mac1609_4 	SentPackets 	1
scalar MyScenario.node[85].nic.mac1609_4 	SNIRLostPackets 	13
scalar MyScenario.node[85].nic.mac1609_4 	RXTXLostPackets 	3
scalar MyScenario.node[85].nic.mac1609_4 	TotalLostPackets 	16
scalar MyScenario.node[85].nic.mac1609_4 	DroppedPacketsInMac 	0
scalar MyScenario.node[85].nic.mac1609_4 	TooLittleTime 	0
scalar MyScenario.node[85].nic.mac1609_4 	TimesIntoBackoff 	1
scalar MyScenario.node[85].nic.mac1609_4 	SlotsBackoff 	0
scalar MyScenario.node[85].nic.mac1609_4 	NumInternalContention 	0
scalar MyScenario.node[85].nic.mac1609_4 	totalBusyTime 	0.001857
scalar MyScenario.node[85].veinsmobility 	startTime 	1
scalar MyScenario.node[85].veinsmobility 	totalTime 	53
scalar MyScenario.node[85].veinsmobility 	stopTime 	55
scalar MyScenario.node[85].veinsmobility 	minSpeed 	0.0073398294013009
scalar MyScenario.node[85].veinsmobility 	maxSpeed 	13.8912975149
scalar MyScenario.node[85].veinsmobility 	totalDistance 	574.68642606548
scalar MyScenario.node[85].veinsmobility 	totalCO2Emission 	150.47576795574
scalar MyScenario.node[25].appl 	generatedWSMs 	0
scalar MyScenario.node[25].appl 	receivedWSMs 	0
scalar MyScenario.node[25].appl 	generatedBSMs 	0
scalar MyScenario.node[25].appl 	receivedBSMs 	0
scalar MyScenario.node[25].appl 	generatedWSAs 	0
scalar MyScenario.node[25].appl 	receivedWSAs 	0
scalar MyScenario.node[25].nic.phy80211p 	busyTime 	0
scalar MyScenario.node[25].nic.mac1609_4 	ReceivedUnicastPackets 	0
scalar MyScenario.node[25].nic.mac1609_4 	ReceivedBroadcasts 	0
scalar MyScenario.node[25].nic.mac1609_4 	SentPackets 	0
scalar MyScenario.node[25].nic.mac1609_4 	SNIRLostPackets 	0
scalar MyScenario.node[25].nic.mac1609_4 	RXTXLostPackets 	0
scalar MyScenario.node[25].nic.mac1609_4 	TotalLostPackets 	0
scalar MyScenario.node[25].nic.mac1609_4 	DroppedPacketsInMac 	0
scalar MyScenario.node[25].nic.mac1609_4 	TooLittleTime 	0
scalar MyScenario.node[25].nic.mac1609_4 	TimesIntoBackoff 	0
scalar MyScenario.node[25].nic.mac1609_4 	SlotsBackoff 	0
scalar MyScenario.node[25].nic.mac1609_4 	NumInternalContention 	0
scalar MyScenario.node[25].nic.mac1609_4 	totalBusyTime 	0
scalar MyScenario.node[25].veinsmobility 	startTime 	1
scalar MyScenario.node[25].veinsmobility 	totalTime 	54
scalar MyScenario.node[25].veinsmobility 	stopTime 	56
scalar MyScenario.node[25].veinsmobility 	minSpeed 	2.0621657112613
scalar MyScenario.node[25].veinsmobility 	maxSpeed 	13.871151913772
scalar MyScenario.node[25].veinsmobility 	totalDistance 	660.33336133518
scalar MyScenario.node[25].veinsmobility 	totalCO2Emission 	157.66539476429
scalar MyScenario.node[6].appl 	generatedWSMs 	0
scalar MyScenario.node[6].appl 	receivedWSMs 	0
scalar MyScenario.node[6].appl 	generatedBSMs 	0
scalar MyScenario.node[6].appl 	receivedBSMs 	0
scalar MyScenario.node[6].appl 	generatedWSAs 	0
scalar MyScenario.node[6].appl 	receivedWSAs 	0
scalar MyScenario.node[6].nic.phy80211p 	busyTime 	4.2181818181818e-06
scalar MyScenario.node[6].nic.mac1609_4 	ReceivedUnicastPackets 	0
scalar MyScenario.node[6].nic.mac1609_4 	ReceivedBroadcasts 	0
scalar MyScenario.node[6].nic.mac1609_4 	SentPackets 	0
scalar MyScenario.node[6].nic.mac1609_4 	SNIRLostPackets 	1
scalar MyScenario.node[6].nic.mac1609_4 	RXTXLostPackets 	0
scalar MyScenario.node[6].nic.mac1609_4 	TotalLostPackets 	1
scalar MyScenario.node[6].nic.mac1609_4 	DroppedPacketsInMac 	0
scalar MyScenario.node[6].nic.mac1609_4 	TooLittleTime 	0
scalar MyScenario.node[6].nic.mac1609_4 	TimesIntoBackoff 	0
scalar MyScenario.node[6].nic.mac1609_4 	SlotsBackoff 	0
scalar MyScenario.node[6].nic.mac1609_4 	NumInternalContention 	0
scalar MyScenario.node[6].nic.mac1609_4 	totalBusyTime 	0.000232
scalar MyScenario.node[6].veinsmobility 	startTime 	1
scalar MyScenario.node[6].veinsmobility 	totalTime 	54
scalar MyScenario.node[6].veinsmobility 	stopTime 	56
scalar MyScenario.node[6].veinsmobility 	minSpeed 	2.4144674715819
scalar MyScenario.node[6].veinsmobility 	maxSpeed 	13.881738547864
scalar MyScenario.node[6].veinsmobility 	totalDistance 	669.59219458988
scalar MyScenario.node[6].veinsmobility 	totalCO2Emission 	143.35590923378
scalar MyScenario.node[82].appl 	generatedWSMs 	0
scalar MyScenario.node[82].appl 	receivedWSMs 	0
scalar MyScenario.node[82].appl 	generatedBSMs 	0
scalar MyScenario.node[82].appl 	receivedBSMs 	0
scalar MyScenario.node[82].appl 	generatedWSAs 	0
scalar MyScenario.node[82].appl 	receivedWSAs 	0
scalar MyScenario.node[82].nic.phy80211p 	busyTime 	1.2654545454545e-05
scalar MyScenario.node[82].nic.mac1609_4 	ReceivedUnicastPackets 	0
scalar MyScenario.node[82].nic.mac1609_4 	ReceivedBroadcasts 	0
scalar MyScenario.node[82].nic.mac1609_4 	SentPackets 	0
scalar MyScenario.node[82].nic.mac1609_4 	SNIRLostPackets 	3
scalar MyScenario.node[82].nic.mac1609_4 	RXTXLostPackets 	0
scalar MyScenario.node[82].nic.mac1609_4 	TotalLostPackets 	3
scalar MyScenario.node[82].nic.mac1609_4 	DroppedPacketsInMac 	0
scalar MyScenario.node[82].nic.mac1609_4 	TooLittleTime 	0
scalar MyScenario.node[82].nic.mac1609_4 	TimesIntoBackoff 	0
scalar MyScenario.node[82].nic.mac1609_4 	SlotsBackoff 	0
scalar MyScenario.node[82].nic.mac1609_4 	NumInternalContention 	0
scalar MyScenario.node[82].nic.mac1609_4 	totalBusyTime 	0.000696
scalar MyScenario.node[82].veinsmobility 	startTime 	1
scalar MyScenario.node[82].veinsmobility 	totalTime 	54
scalar MyScenario.node[82].veinsmobility 	stopTime 	56
scalar MyScenario.node[82].veinsmobility 	minSpeed 	2.5688235518523
scalar MyScenario.node[82].veinsmobility 	maxSpeed 	13.889587951638
scalar MyScenario.node[82].veinsmobility 	totalDistance 	578.33767419376
scalar MyScenario.node[82].veinsmobility 	totalCO2Emission 	212.99706192899
scalar MyScenario.node[86].appl 	generatedWSMs 	1
scalar MyScenario.node[86].appl 	receivedWSMs 	12
scalar MyScenario.node[86].appl 	generatedBSMs 	0
scalar MyScenario.node[86].appl 	receivedBSMs 	0
scalar MyScenario.node[86].appl 	generatedWSAs 	0
scalar MyScenario.node[86].appl 	receivedWSAs 	0
scalar MyScenario.node[86].nic.phy80211p 	busyTime 	0.000145
scalar MyScenario.node[86].nic.mac1609_4 	ReceivedUnicastPackets 	0
scalar MyScenario.node[86].nic.mac1609_4 	ReceivedBroadcasts 	12
scalar MyScenario.node[86].nic.mac1609_4 	SentPackets 	1
scalar MyScenario.node[86].nic.mac1609_4 	SNIRLostPackets 	23
scalar MyScenario.node[86].nic.mac1609_4 	RXTXLostPackets 	0
scalar MyScenario.node[86].nic.mac1609_4 	TotalLostPackets 	23
scalar MyScenario.node[86].nic.mac1609_4 	DroppedPacketsInMac 	0
scalar MyScenario.node[86].nic.mac1609_4 	TooLittleTime 	0
scalar MyScenario.node[86].nic.mac1609_4 	TimesIntoBackoff 	1
scalar MyScenario.node[86].nic.mac1609_4 	SlotsBackoff 	1
scalar MyScenario.node[86].nic.mac1609_4 	NumInternalContention 	0
scalar MyScenario.node[86].nic.mac1609_4 	totalBusyTime 	0.004409
scalar MyScenario.node[86].veinsmobility 	startTime 	1
scalar MyScenario.node[86].veinsmobility 	totalTime 	55
scalar MyScenario.node[86].veinsmobility 	stopTime 	57
scalar MyScenario.node[86].veinsmobility 	minSpeed 	2.2777452077484
scalar MyScenario.node[86].veinsmobility 	maxSpeed 	13.879791947245
scalar MyScenario.node[86].veinsmobility 	totalDistance 	662.5436329434
scalar MyScenario.node[86].veinsmobility 	totalCO2Emission 	155.50572805379
scalar MyScenario.node[64].appl 	generatedWSMs 	1
scalar MyScenario.node[64].appl 	receivedWSMs 	16
scalar MyScenario.node[64].appl 	generatedBSMs 	0
scalar MyScenario.node[64].appl 	receivedBSMs 	0
scalar MyScenario.node[64].appl 	generatedWSAs 	0
scalar MyScenario.node[64].appl 	receivedWSAs 	0
scalar MyScenario.node[64].nic.phy80211p 	busyTime 	0.00014245614035088
scalar MyScenario.node[64].nic.mac1609_4 	ReceivedUnicastPackets 	0
scalar MyScenario.node[64].nic.mac1609_4 	ReceivedBroadcasts 	16
scalar MyScenario.node[64].nic.mac1609_4 	SentPackets 	1
scalar MyScenario.node[64].nic.mac1609_4 	SNIRLostPackets 	19
scalar MyScenario.node[64].nic.mac1609_4 	RXTXLostPackets 	6
scalar MyScenario.node[64].nic.mac1609_4 	TotalLostPackets 	25
scalar MyScenario.node[64].nic.mac1609_4 	DroppedPacketsInMac 	0
scalar MyScenario.node[64].nic.mac1609_4 	TooLittleTime 	0
scalar MyScenario.node[64].nic.mac1609_4 	TimesIntoBackoff 	1
scalar MyScenario.node[64].nic.mac1609_4 	SlotsBackoff 	1
scalar MyScenario.node[64].nic.mac1609_4 	NumInternalContention 	0
scalar MyScenario.node[64].nic.mac1609_4 	totalBusyTime 	0.005569
scalar MyScenario.node[64].veinsmobility 	startTime 	1
scalar MyScenario.node[64].veinsmobility 	totalTime 	56
scalar MyScenario.node[64].veinsmobility 	stopTime 	58
scalar MyScenario.node[64].veinsmobility 	minSpeed 	0.019901694193632
scalar MyScenario.node[64].veinsmobility 	maxSpeed 	13.882992347027
scalar MyScenario.node[64].veinsmobility 	totalDistance 	567.31143640739
scalar MyScenario.node[64].veinsmobility 	totalCO2Emission 	171.47624205122
scalar MyScenario.node[75].appl 	generatedWSMs 	1
scalar MyScenario.node[75].appl 	receivedWSMs 	16
scalar MyScenario.node[75].appl 	generatedBSMs 	0
scalar MyScenario.node[75].appl 	receivedBSMs 	0
scalar MyScenario.node[75].appl 	generatedWSAs 	0
scalar MyScenario.node[75].appl 	receivedWSAs 	0
scalar MyScenario.node[75].nic.phy80211p 	busyTime 	0.00016280701754386
scalar MyScenario.node[75].nic.mac1609_4 	ReceivedUnicastPackets 	0
scalar MyScenario.node[75].nic.mac1609_4 	ReceivedBroadcasts 	16
scalar MyScenario.node[75].nic.mac1609_4 	SentPackets 	1
scalar MyScenario.node[75].nic.mac1609_4 	SNIRLostPackets 	24
scalar MyScenario.node[75].nic.mac1609_4 	RXTXLostPackets 	4
scalar MyScenario.node[75].nic.mac1609_4 	TotalLostPackets 	28
scalar MyScenario.node[75].nic.mac1609_4 	DroppedPacketsInMac 	0
scalar MyScenario.node[75].nic.mac1609_4 	TooLittleTime 	0
scalar MyScenario.node[75].nic.mac1609_4 	TimesIntoBackoff 	1
scalar MyScenario.node[75].nic.mac1609_4 	SlotsBackoff 	0
scalar MyScenario.node[75].nic.mac1609_4 	NumInternalContention 	0
scalar MyScenario.node[75].nic.mac1609_4 	totalBusyTime 	0.005337
scalar MyScenario.node[75].veinsmobility 	startTime 	1
scalar MyScenario.node[75].veinsmobility 	totalTime 	56
scalar MyScenario.node[75].veinsmobility 	stopTime 	58
scalar MyScenario.node[75].veinsmobility 	minSpeed 	2.4422728469595
scalar MyScenario.node[75].veinsmobility 	maxSpeed 	13.899334364664
scalar MyScenario.node[75].veinsmobility 	totalDistance 	666.74605610106
scalar MyScenario.node[75].veinsmobility 	totalCO2Emission 	175.58403706501
scalar MyScenario.node[62].appl 	generatedWSMs 	1
scalar MyScenario.node[62].appl 	receivedWSMs 	1
scalar MyScenario.node[62].appl 	generatedBSMs 	0
scalar MyScenario.node[62].appl 	receivedBSMs 	0
scalar MyScenario.node[62].appl 	generatedWSAs 	0
scalar MyScenario.node[62].appl 	receivedWSAs 	0
scalar MyScenario.node[62].nic.phy80211p 	busyTime 	5.6e-05
scalar MyScenario.node[62].nic.mac1609_4 	ReceivedUnicastPackets 	0
scalar MyScenario.node[62].nic.mac1609_4 	ReceivedBroadcasts 	1
scalar MyScenario.node[62].nic.mac1609_4 	SentPackets 	1
scalar MyScenario.node[62].nic.mac1609_4 	SNIRLostPackets 	13
scalar MyScenario.node[62].nic.mac1609_4 	RXTXLostPackets 	6
scalar MyScenario.node[62].nic.mac1609_4 	TotalLostPackets 	19
scalar MyScenario.node[62].nic.mac1609_4 	DroppedPacketsInMac 	0
scalar MyScenario.node[62].nic.mac1609_4 	TooLittleTime 	0
scalar MyScenario.node[62].nic.mac1609_4 	TimesIntoBackoff 	1
scalar MyScenario.node[62].nic.mac1609_4 	SlotsBackoff 	2
scalar MyScenario.node[62].nic.mac1609_4 	NumInternalContention 	0
scalar MyScenario.node[62].nic.mac1609_4 	totalBusyTime 	0.001857000097
scalar MyScenario.node[62].veinsmobility 	startTime 	1
scalar MyScenario.node[62].veinsmobility 	totalTime 	57
scalar MyScenario.node[62].veinsmobility 	stopTime 	59
scalar MyScenario.node[62].veinsmobility 	minSpeed 	2.2017311848234
scalar MyScenario.node[62].veinsmobility 	maxSpeed 	13.874386789091
scalar MyScenario.node[62].veinsmobility 	totalDistance 	679.17407071363
scalar MyScenario.node[62].veinsmobility 	totalCO2Emission 	174.1572019698
scalar MyScenario.node[55].appl 	generatedWSMs 	0
scalar MyScenario.node[55].appl 	receivedWSMs 	0
scalar MyScenario.node[55].appl 	generatedBSMs 	0
scalar MyScenario.node[55].appl 	receivedBSMs 	0
scalar MyScenario.node[55].appl 	generatedWSAs 	0
scalar MyScenario.node[55].appl 	receivedWSAs 	0
scalar MyScenario.node[55].nic.phy80211p 	busyTime 	0
scalar MyScenario.node[55].nic.mac1609_4 	ReceivedUnicastPackets 	0
scalar MyScenario.node[55].nic.mac1609_4 	ReceivedBroadcasts 	0
scalar MyScenario.node[55].nic.mac1609_4 	SentPackets 	0
scalar MyScenario.node[55].nic.mac1609_4 	SNIRLostPackets 	0
scalar MyScenario.node[55].nic.mac1609_4 	RXTXLostPackets 	0
scalar MyScenario.node[55].nic.mac1609_4 	TotalLostPackets 	0
scalar MyScenario.node[55].nic.mac1609_4 	DroppedPacketsInMac 	0
scalar MyScenario.node[55].nic.mac1609_4 	TooLittleTime 	0
scalar MyScenario.node[55].nic.mac1609_4 	TimesIntoBackoff 	0
scalar MyScenario.node[55].nic.mac1609_4 	SlotsBackoff 	0
scalar MyScenario.node[55].nic.mac1609_4 	NumInternalContention 	0
scalar MyScenario.node[55].nic.mac1609_4 	totalBusyTime 	0
scalar MyScenario.node[55].veinsmobility 	startTime 	1
scalar MyScenario.node[55].veinsmobility 	totalTime 	57
scalar MyScenario.node[55].veinsmobility 	stopTime 	59
scalar MyScenario.node[55].veinsmobility 	minSpeed 	2.3114547504578
scalar MyScenario.node[55].veinsmobility 	maxSpeed 	13.799933394906
scalar MyScenario.node[55].veinsmobility 	totalDistance 	653.22438337409
scalar MyScenario.node[55].veinsmobility 	totalCO2Emission 	185.84634288469
scalar MyScenario.node[59].appl 	generatedWSMs 	0
scalar MyScenario.node[59].appl 	receivedWSMs 	0
scalar MyScenario.node[59].appl 	generatedBSMs 	0
scalar MyScenario.node[59].appl 	receivedBSMs 	0
scalar MyScenario.node[59].appl 	generatedWSAs 	0
scalar MyScenario.node[59].appl 	receivedWSAs 	0
scalar MyScenario.node[59].nic.phy80211p 	busyTime 	2.6622950819672e-05
scalar MyScenario.node[59].nic.mac1609_4 	ReceivedUnicastPackets 	0
scalar MyScenario.node[59].nic.mac1609_4 	ReceivedBroadcasts 	0
scalar MyScenario.node[59].nic.mac1609_4 	SentPackets 	0
scalar MyScenario.node[59].nic.mac1609_4 	SNIRLostPackets 	7
scalar MyScenario.node[59].nic.mac1609_4 	RXTXLostPackets 	0
scalar MyScenario.node[59].nic.mac1609_4 	TotalLostPackets 	7
scalar MyScenario.node[59].nic.mac1609_4 	DroppedPacketsInMac 	0
scalar MyScenario.node[59].nic.mac1609_4 	TooLittleTime 	0
scalar MyScenario.node[59].nic.mac1609_4 	TimesIntoBackoff 	0
scalar MyScenario.node[59].nic.mac1609_4 	SlotsBackoff 	0
scalar MyScenario.node[59].nic.mac1609_4 	NumInternalContention 	0
scalar MyScenario.node[59].nic.mac1609_4 	totalBusyTime 	0.000696
scalar MyScenario.node[59].veinsmobility 	startTime 	1
scalar MyScenario.node[59].veinsmobility 	totalTime 	60
scalar MyScenario.node[59].veinsmobility 	stopTime 	62
scalar MyScenario.node[59].veinsmobility 	minSpeed 	0.00020600417895828
scalar MyScenario.node[59].veinsmobility 	maxSpeed 	13.80946201405
scalar MyScenario.node[59].veinsmobility 	totalDistance 	570.27346126101
scalar MyScenario.node[59].veinsmobility 	totalCO2Emission 	172.57890199704
scalar MyScenario.node[22].appl 	generatedWSMs 	1
scalar MyScenario.node[22].appl 	receivedWSMs 	1
scalar MyScenario.node[22].appl 	generatedBSMs 	0
scalar MyScenario.node[22].appl 	receivedBSMs 	0
scalar MyScenario.node[22].appl 	generatedWSAs 	0
scalar MyScenario.node[22].appl 	receivedWSAs 	0
scalar MyScenario.node[22].nic.phy80211p 	busyTime 	2.6193548387097e-05
scalar MyScenario.node[22].nic.mac1609_4 	ReceivedUnicastPackets 	0
scalar MyScenario.node[22].nic.mac1609_4 	ReceivedBroadcasts 	1
scalar MyScenario.node[22].nic.mac1609_4 	SentPackets 	1
scalar MyScenario.node[22].nic.mac1609_4 	SNIRLostPackets 	6
scalar MyScenario.node[22].nic.mac1609_4 	RXTXLostPackets 	1
scalar MyScenario.node[22].nic.mac1609_4 	TotalLostPackets 	7
scalar MyScenario.node[22].nic.mac1609_4 	DroppedPacketsInMac 	0
scalar MyScenario.node[22].nic.mac1609_4 	TooLittleTime 	0
scalar MyScenario.node[22].nic.mac1609_4 	TimesIntoBackoff 	1
scalar MyScenario.node[22].nic.mac1609_4 	SlotsBackoff 	1
scalar MyScenario.node[22].nic.mac1609_4 	NumInternalContention 	0
scalar MyScenario.node[22].nic.mac1609_4 	totalBusyTime 	0.000929
scalar MyScenario.node[22].veinsmobility 	startTime 	1
scalar MyScenario.node[22].veinsmobility 	totalTime 	61
scalar MyScenario.node[22].veinsmobility 	stopTime 	63
scalar MyScenario.node[22].veinsmobility 	minSpeed 	2.5732011473738
scalar MyScenario.node[22].veinsmobility 	maxSpeed 	13.803230379825
scalar MyScenario.node[22].veinsmobility 	totalDistance 	771.28079657743
scalar MyScenario.node[22].veinsmobility 	totalCO2Emission 	151.50451412529
scalar MyScenario.node[42].appl 	generatedWSMs 	0
scalar MyScenario.node[42].appl 	receivedWSMs 	0
scalar MyScenario.node[42].appl 	generatedBSMs 	0
scalar MyScenario.node[42].appl 	receivedBSMs 	0
scalar MyScenario.node[42].appl 	generatedWSAs 	0
scalar MyScenario.node[42].appl 	receivedWSAs 	0
scalar MyScenario.node[42].nic.phy80211p 	busyTime 	0
scalar MyScenario.node[42].nic.mac1609_4 	ReceivedUnicastPackets 	0
scalar MyScenario.node[42].nic.mac1609_4 	ReceivedBroadcasts 	0
scalar MyScenario.node[42].nic.mac1609_4 	SentPackets 	0
scalar MyScenario.node[42].nic.mac1609_4 	SNIRLostPackets 	0
scalar MyScenario.node[42].nic.mac1609_4 	RXTXLostPackets 	0
scalar MyScenario.node[42].nic.mac1609_4 	TotalLostPackets 	0
scalar MyScenario.node[42].nic.mac1609_4 	DroppedPacketsInMac 	0
scalar MyScenario.node[42].nic.mac1609_4 	TooLittleTime 	0
scalar MyScenario.node[42].nic.mac1609_4 	TimesIntoBackoff 	0
scalar MyScenario.node[42].nic.mac1609_4 	SlotsBackoff 	0
scalar MyScenario.node[42].nic.mac1609_4 	NumInternalContention 	0
scalar MyScenario.node[42].nic.mac1609_4 	totalBusyTime 	0
scalar MyScenario.node[42].veinsmobility 	startTime 	1
scalar MyScenario.node[42].veinsmobility 	totalTime 	61
scalar MyScenario.node[42].veinsmobility 	stopTime 	63
scalar MyScenario.node[42].veinsmobility 	minSpeed 	2.2206693945685
scalar MyScenario.node[42].veinsmobility 	maxSpeed 	13.854117728188
scalar MyScenario.node[42].veinsmobility 	totalDistance 	772.32735586839
scalar MyScenario.node[42].veinsmobility 	totalCO2Emission 	154.07498147061
scalar MyScenario.node[43].appl 	generatedWSMs 	0
scalar MyScenario.node[43].appl 	receivedWSMs 	0
scalar MyScenario.node[43].appl 	generatedBSMs 	0
scalar MyScenario.node[43].appl 	receivedBSMs 	0
scalar MyScenario.node[43].appl 	generatedWSAs 	0
scalar MyScenario.node[43].appl 	receivedWSAs 	0
scalar MyScenario.node[43].nic.phy80211p 	busyTime 	2.5777777777778e-05
scalar MyScenario.node[43].nic.mac1609_4 	ReceivedUnicastPackets 	0
scalar MyScenario.node[43].nic.mac1609_4 	ReceivedBroadcasts 	0
scalar MyScenario.node[43].nic.mac1609_4 	SentPackets 	0
scalar MyScenario.node[43].nic.mac1609_4 	SNIRLostPackets 	7
scalar MyScenario.node[43].nic.mac1609_4 	RXTXLostPackets 	0
scalar MyScenario.node[43].nic.mac1609_4 	TotalLostPackets 	7
scalar MyScenario.node[43].nic.mac1609_4 	DroppedPacketsInMac 	0
scalar MyScenario.node[43].nic.mac1609_4 	TooLittleTime 	0
scalar MyScenario.node[43].nic.mac1609_4 	TimesIntoBackoff 	0
scalar MyScenario.node[43].nic.mac1609_4 	SlotsBackoff 	0
scalar MyScenario.node[43].nic.mac1609_4 	NumInternalContention 	0
scalar MyScenario.node[43].nic.mac1609_4 	totalBusyTime 	0.000464
scalar MyScenario.node[43].veinsmobility 	startTime 	1
scalar MyScenario.node[43].veinsmobility 	totalTime 	62
scalar MyScenario.node[43].veinsmobility 	stopTime 	64
scalar MyScenario.node[43].veinsmobility 	minSpeed 	0.12077652542412
scalar MyScenario.node[43].veinsmobility 	maxSpeed 	13.814286244544
scalar MyScenario.node[43].veinsmobility 	totalDistance 	665.99006185242
scalar MyScenario.node[43].veinsmobility 	totalCO2Emission 	176.3090444218
scalar MyScenario.node[97].appl 	generatedWSMs 	1
scalar MyScenario.node[97].appl 	receivedWSMs 	10
scalar MyScenario.node[97].appl 	generatedBSMs 	0
scalar MyScenario.node[97].appl 	receivedBSMs 	0
scalar MyScenario.node[97].appl 	generatedWSAs 	0
scalar MyScenario.node[97].appl 	receivedWSAs 	0
scalar MyScenario.node[97].nic.phy80211p 	busyTime 	5.8e-05
scalar MyScenario.node[97].nic.mac1609_4 	ReceivedUnicastPackets 	0
scalar MyScenario.node[97].nic.mac1609_4 	ReceivedBroadcasts 	10
scalar MyScenario.node[97].nic.mac1609_4 	SentPackets 	1
scalar MyScenario.node[97].nic.mac1609_4 	SNIRLostPackets 	5
scalar MyScenario.node[97].nic.mac1609_4 	RXTXLostPackets 	1
scalar MyScenario.node[97].nic.mac1609_4 	TotalLostPackets 	6
scalar MyScenario.node[97].nic.mac1609_4 	DroppedPacketsInMac 	0
scalar MyScenario.node[97].nic.mac1609_4 	TooLittleTime 	0
scalar MyScenario.node[97].nic.mac1609_4 	TimesIntoBackoff 	1
scalar MyScenario.node[97].nic.mac1609_4 	SlotsBackoff 	2
scalar MyScenario.node[97].nic.mac1609_4 	NumInternalContention 	0
scalar MyScenario.node[97].nic.mac1609_4 	totalBusyTime 	0.003481
scalar MyScenario.node[97].veinsmobility 	startTime 	4
scalar MyScenario.node[97].veinsmobility 	totalTime 	59
scalar MyScenario.node[97].veinsmobility 	stopTime 	64
scalar MyScenario.node[97].veinsmobility 	minSpeed 	1.988134224317
scalar MyScenario.node[97].veinsmobility 	maxSpeed 	13.889942762931
scalar MyScenario.node[97].veinsmobility 	totalDistance 	671.14500934119
scalar MyScenario.node[97].veinsmobility 	totalCO2Emission 	181.04183625129
scalar MyScenario.node[70].appl 	generatedWSMs 	1
scalar MyScenario.node[70].appl 	receivedWSMs 	4
scalar MyScenario.node[70].appl 	generatedBSMs 	0
scalar MyScenario.node[70].appl 	receivedBSMs 	0
scalar MyScenario.node[70].appl 	generatedWSAs 	0
scalar MyScenario.node[70].appl 	receivedWSAs 	0
scalar MyScenario.node[70].nic.phy80211p 	busyTime 	3.6825396825397e-05
scalar MyScenario.node[70].nic.mac1609_4 	ReceivedUnicastPackets 	0
scalar MyScenario.node[70].nic.mac1609_4 	ReceivedBroadcasts 	4
scalar MyScenario.node[70].nic.mac1609_4 	SentPackets 	1
scalar MyScenario.node[70].nic.mac1609_4 	SNIRLostPackets 	6
scalar MyScenario.node[70].nic.mac1609_4 	RXTXLostPackets 	4
scalar MyScenario.node[70].nic.mac1609_4 	TotalLostPackets 	10
scalar MyScenario.node[70].nic.mac1609_4 	DroppedPacketsInMac 	0
scalar MyScenario.node[70].nic.mac1609_4 	TooLittleTime 	0
scalar MyScenario.node[70].nic.mac1609_4 	TimesIntoBackoff 	1
scalar MyScenario.node[70].nic.mac1609_4 	SlotsBackoff 	0
scalar MyScenario.node[70].nic.mac1609_4 	NumInternalContention 	0
scalar MyScenario.node[70].nic.mac1609_4 	totalBusyTime 	0.001393
scalar MyScenario.node[70].veinsmobility 	startTime 	1
scalar MyScenario.node[70].veinsmobility 	totalTime 	62
scalar MyScenario.node[70].veinsmobility 	stopTime 	64
scalar MyScenario.node[70].veinsmobility 	minSpeed 	0.016446992353218
scalar MyScenario.node[70].veinsmobility 	maxSpeed 	13.81640236706
scalar MyScenario.node[70].veinsmobility 	totalDistance 	568.24245148882
scalar MyScenario.node[70].veinsmobility 	totalCO2Emission 	208.5050036151
scalar MyScenario.node[76].appl 	generatedWSMs 	0
scalar MyScenario.node[76].appl 	receivedWSMs 	0
scalar MyScenario.node[76].appl 	generatedBSMs 	0
scalar MyScenario.node[76].appl 	receivedBSMs 	0
scalar MyScenario.node[76].appl 	generatedWSAs 	0
scalar MyScenario.node[76].appl 	receivedWSAs 	0
scalar MyScenario.node[76].nic.phy80211p 	busyTime 	0
scalar MyScenario.node[76].nic.mac1609_4 	ReceivedUnicastPackets 	0
scalar MyScenario.node[76].nic.mac1609_4 	ReceivedBroadcasts 	0
scalar MyScenario.node[76].nic.mac1609_4 	SentPackets 	0
scalar MyScenario.node[76].nic.mac1609_4 	SNIRLostPackets 	0
scalar MyScenario.node[76].nic.mac1609_4 	RXTXLostPackets 	0
scalar MyScenario.node[76].nic.mac1609_4 	TotalLostPackets 	0
scalar MyScenario.node[76].nic.mac1609_4 	DroppedPacketsInMac 	0
scalar MyScenario.node[76].nic.mac1609_4 	TooLittleTime 	0
scalar MyScenario.node[76].nic.mac1609_4 	TimesIntoBackoff 	0
scalar MyScenario.node[76].nic.mac1609_4 	SlotsBackoff 	0
scalar MyScenario.node[76].nic.mac1609_4 	NumInternalContention 	0
scalar MyScenario.node[76].nic.mac1609_4 	totalBusyTime 	0
scalar MyScenario.node[76].veinsmobility 	startTime 	1
scalar MyScenario.node[76].veinsmobility 	totalTime 	63
scalar MyScenario.node[76].veinsmobility 	stopTime 	65
scalar MyScenario.node[76].veinsmobility 	minSpeed 	1.5483920405386
scalar MyScenario.node[76].veinsmobility 	maxSpeed 	13.781235643104
scalar MyScenario.node[76].veinsmobility 	totalDistance 	683.39326050937
scalar MyScenario.node[76].veinsmobility 	totalCO2Emission 	234.6360186156
scalar MyScenario.node[73].appl 	generatedWSMs 	0
scalar MyScenario.node[73].appl 	receivedWSMs 	0
scalar MyScenario.node[73].appl 	generatedBSMs 	0
scalar MyScenario.node[73].appl 	receivedBSMs 	0
scalar MyScenario.node[73].appl 	generatedWSAs 	0
scalar MyScenario.node[73].appl 	receivedWSAs 	0
scalar MyScenario.node[73].nic.phy80211p 	busyTime 	7.25e-06
scalar MyScenario.node[73].nic.mac1609_4 	ReceivedUnicastPackets 	0
scalar MyScenario.node[73].nic.mac1609_4 	ReceivedBroadcasts 	0
scalar MyScenario.node[73].nic.mac1609_4 	SentPackets 	0
scalar MyScenario.node[73].nic.mac1609_4 	SNIRLostPackets 	2
scalar MyScenario.node[73].nic.mac1609_4 	RXTXLostPackets 	0
scalar MyScenario.node[73].nic.mac1609_4 	TotalLostPackets 	2
scalar MyScenario.node[73].nic.mac1609_4 	DroppedPacketsInMac 	0
scalar MyScenario.node[73].nic.mac1609_4 	TooLittleTime 	0
scalar MyScenario.node[73].nic.mac1609_4 	TimesIntoBackoff 	0
scalar MyScenario.node[73].nic.mac1609_4 	SlotsBackoff 	0
scalar MyScenario.node[73].nic.mac1609_4 	NumInternalContention 	0
scalar MyScenario.node[73].nic.mac1609_4 	totalBusyTime 	0.000232
scalar MyScenario.node[73].veinsmobility 	startTime 	1
scalar MyScenario.node[73].veinsmobility 	totalTime 	63
scalar MyScenario.node[73].veinsmobility 	stopTime 	65
scalar MyScenario.node[73].veinsmobility 	minSpeed 	2.0813117570244
scalar MyScenario.node[73].veinsmobility 	maxSpeed 	13.876786137908
scalar MyScenario.node[73].veinsmobility 	totalDistance 	772.96968600275
scalar MyScenario.node[73].veinsmobility 	totalCO2Emission 	175.8305542799
scalar MyScenario.node[58].appl 	generatedWSMs 	1
scalar MyScenario.node[58].appl 	receivedWSMs 	10
scalar MyScenario.node[58].appl 	generatedBSMs 	0
scalar MyScenario.node[58].appl 	receivedBSMs 	0
scalar MyScenario.node[58].appl 	generatedWSAs 	0
scalar MyScenario.node[58].appl 	receivedWSAs 	0
scalar MyScenario.node[58].nic.phy80211p 	busyTime 	5.7107692307692e-05
scalar MyScenario.node[58].nic.mac1609_4 	ReceivedUnicastPackets 	0
scalar MyScenario.node[58].nic.mac1609_4 	ReceivedBroadcasts 	10
scalar MyScenario.node[58].nic.mac1609_4 	SentPackets 	1
scalar MyScenario.node[58].nic.mac1609_4 	SNIRLostPackets 	6
scalar MyScenario.node[58].nic.mac1609_4 	RXTXLostPackets 	1
scalar MyScenario.node[58].nic.mac1609_4 	TotalLostPackets 	7
scalar MyScenario.node[58].nic.mac1609_4 	DroppedPacketsInMac 	0
scalar MyScenario.node[58].nic.mac1609_4 	TooLittleTime 	0
scalar MyScenario.node[58].nic.mac1609_4 	TimesIntoBackoff 	1
scalar MyScenario.node[58].nic.mac1609_4 	SlotsBackoff 	2
scalar MyScenario.node[58].nic.mac1609_4 	NumInternalContention 	0
scalar MyScenario.node[58].nic.mac1609_4 	totalBusyTime 	0.003249
scalar MyScenario.node[58].veinsmobility 	startTime 	1
scalar MyScenario.node[58].veinsmobility 	totalTime 	64
scalar MyScenario.node[58].veinsmobility 	stopTime 	66
scalar MyScenario.node[58].veinsmobility 	minSpeed 	1.7561127329245
scalar MyScenario.node[58].veinsmobility 	maxSpeed 	13.887292685639
scalar MyScenario.node[58].veinsmobility 	totalDistance 	767.83732119922
scalar MyScenario.node[58].veinsmobility 	totalCO2Emission 	188.6110313636
scalar MyScenario.node[98].appl 	generatedWSMs 	1
scalar MyScenario.node[98].appl 	receivedWSMs 	11
scalar MyScenario.node[98].appl 	generatedBSMs 	0
scalar MyScenario.node[98].appl 	receivedBSMs 	0
scalar MyScenario.node[98].appl 	generatedWSAs 	0
scalar MyScenario.node[98].appl 	receivedWSAs 	0
scalar MyScenario.node[98].nic.phy80211p 	busyTime 	0.00011029508196721
scalar MyScenario.node[98].nic.mac1609_4 	ReceivedUnicastPackets 	0
scalar MyScenario.node[98].nic.mac1609_4 	ReceivedBroadcasts 	11
scalar MyScenario.node[98].nic.mac1609_4 	SentPackets 	1
scalar MyScenario.node[98].nic.mac1609_4 	SNIRLostPackets 	18
scalar MyScenario.node[98].nic.mac1609_4 	RXTXLostPackets 	7
scalar MyScenario.node[98].nic.mac1609_4 	TotalLostPackets 	25
scalar MyScenario.node[98].nic.mac1609_4 	DroppedPacketsInMac 	0
scalar MyScenario.node[98].nic.mac1609_4 	TooLittleTime 	0
scalar MyScenario.node[98].nic.mac1609_4 	TimesIntoBackoff 	1
scalar MyScenario.node[98].nic.mac1609_4 	SlotsBackoff 	1
scalar MyScenario.node[98].nic.mac1609_4 	NumInternalContention 	0
scalar MyScenario.node[98].nic.mac1609_4 	totalBusyTime 	0.003945000087
scalar MyScenario.node[98].veinsmobility 	startTime 	7
scalar MyScenario.node[98].veinsmobility 	totalTime 	60
scalar MyScenario.node[98].veinsmobility 	stopTime 	68
scalar MyScenario.node[98].veinsmobility 	minSpeed 	0.23760678576976
scalar MyScenario.node[98].veinsmobility 	maxSpeed 	13.884945856617
scalar MyScenario.node[98].veinsmobility 	totalDistance 	669.2975322373
scalar MyScenario.node[98].veinsmobility 	totalCO2Emission 	175.84070257231
scalar MyScenario.node[41].appl 	generatedWSMs 	1
scalar MyScenario.node[41].appl 	receivedWSMs 	16
scalar MyScenario.node[41].appl 	generatedBSMs 	0
scalar MyScenario.node[41].appl 	receivedBSMs 	0
scalar MyScenario.node[41].appl 	generatedWSAs 	0
scalar MyScenario.node[41].appl 	receivedWSAs 	0
scalar MyScenario.node[41].nic.phy80211p 	busyTime 	9.8941176470588e-05
scalar MyScenario.node[41].nic.mac1609_4 	ReceivedUnicastPackets 	0
scalar MyScenario.node[41].nic.mac1609_4 	ReceivedBroadcasts 	16
scalar MyScenario.node[41].nic.mac1609_4 	SentPackets 	1
scalar MyScenario.node[41].nic.mac1609_4 	SNIRLostPackets 	13
scalar MyScenario.node[41].nic.mac1609_4 	RXTXLostPackets 	2
scalar MyScenario.node[41].nic.mac1609_4 	TotalLostPackets 	15
scalar MyScenario.node[41].nic.mac1609_4 	DroppedPacketsInMac 	0
scalar MyScenario.node[41].nic.mac1609_4 	TooLittleTime 	0
scalar MyScenario.node[41].nic.mac1609_4 	TimesIntoBackoff 	1
scalar MyScenario.node[41].nic.mac1609_4 	SlotsBackoff 	0
scalar MyScenario.node[41].nic.mac1609_4 	NumInternalContention 	0
scalar MyScenario.node[41].nic.mac1609_4 	totalBusyTime 	0.005337
scalar MyScenario.node[41].veinsmobility 	startTime 	1
scalar MyScenario.node[41].veinsmobility 	totalTime 	67
scalar MyScenario.node[41].veinsmobility 	stopTime 	69
scalar MyScenario.node[41].veinsmobility 	minSpeed 	1.8734896892915
scalar MyScenario.node[41].veinsmobility 	maxSpeed 	13.816966292891
scalar MyScenario.node[41].veinsmobility 	totalDistance 	770.87152517699
scalar MyScenario.node[41].veinsmobility 	totalCO2Emission 	208.49065966639
scalar MyScenario.node[46].appl 	generatedWSMs 	1
scalar MyScenario.node[46].appl 	receivedWSMs 	1
scalar MyScenario.node[46].appl 	generatedBSMs 	0
scalar MyScenario.node[46].appl 	receivedBSMs 	0
scalar MyScenario.node[46].appl 	generatedWSAs 	0
scalar MyScenario.node[46].appl 	receivedWSAs 	0
scalar MyScenario.node[46].nic.phy80211p 	busyTime 	5.4588235294118e-05
scalar MyScenario.node[46].nic.mac1609_4 	ReceivedUnicastPackets 	0
scalar MyScenario.node[46].nic.mac1609_4 	ReceivedBroadcasts 	1
scalar MyScenario.node[46].nic.mac1609_4 	SentPackets 	1
scalar MyScenario.node[46].nic.mac1609_4 	SNIRLostPackets 	15
scalar MyScenario.node[46].nic.mac1609_4 	RXTXLostPackets 	6
scalar MyScenario.node[46].nic.mac1609_4 	TotalLostPackets 	21
scalar MyScenario.node[46].nic.mac1609_4 	DroppedPacketsInMac 	0
scalar MyScenario.node[46].nic.mac1609_4 	TooLittleTime 	0
scalar MyScenario.node[46].nic.mac1609_4 	TimesIntoBackoff 	1
scalar MyScenario.node[46].nic.mac1609_4 	SlotsBackoff 	0
scalar MyScenario.node[46].nic.mac1609_4 	NumInternalContention 	0
scalar MyScenario.node[46].nic.mac1609_4 	totalBusyTime 	0.002321171229
scalar MyScenario.node[46].veinsmobility 	startTime 	1
scalar MyScenario.node[46].veinsmobility 	totalTime 	67
scalar MyScenario.node[46].veinsmobility 	stopTime 	69
scalar MyScenario.node[46].veinsmobility 	minSpeed 	1.41270811141
scalar MyScenario.node[46].veinsmobility 	maxSpeed 	13.777315342333
scalar MyScenario.node[46].veinsmobility 	totalDistance 	749.10177706592
scalar MyScenario.node[46].veinsmobility 	totalCO2Emission 	214.72576967137
scalar MyScenario.node[88].appl 	generatedWSMs 	1
scalar MyScenario.node[88].appl 	receivedWSMs 	1
scalar MyScenario.node[88].appl 	generatedBSMs 	0
scalar MyScenario.node[88].appl 	receivedBSMs 	0
scalar MyScenario.node[88].appl 	generatedWSAs 	0
scalar MyScenario.node[88].appl 	receivedWSAs 	0
scalar MyScenario.node[88].nic.phy80211p 	busyTime 	3.5692307692308e-06
scalar MyScenario.node[88].nic.mac1609_4 	ReceivedUnicastPackets 	0
scalar MyScenario.node[88].nic.mac1609_4 	ReceivedBroadcasts 	1
scalar MyScenario.node[88].nic.mac1609_4 	SentPackets 	1
scalar MyScenario.node[88].nic.mac1609_4 	SNIRLostPackets 	0
scalar MyScenario.node[88].nic.mac1609_4 	RXTXLostPackets 	1
scalar MyScenario.node[88].nic.mac1609_4 	TotalLostPackets 	1
scalar MyScenario.node[88].nic.mac1609_4 	DroppedPacketsInMac 	0
scalar MyScenario.node[88].nic.mac1609_4 	TooLittleTime 	0
scalar MyScenario.node[88].nic.mac1609_4 	TimesIntoBackoff 	1
scalar MyScenario.node[88].nic.mac1609_4 	SlotsBackoff 	0
scalar MyScenario.node[88].nic.mac1609_4 	NumInternalContention 	0
scalar MyScenario.node[88].nic.mac1609_4 	totalBusyTime 	0.000465
scalar MyScenario.node[88].veinsmobility 	startTime 	4
scalar MyScenario.node[88].veinsmobility 	totalTime 	64
scalar MyScenario.node[88].veinsmobility 	stopTime 	69
scalar MyScenario.node[88].veinsmobility 	minSpeed 	2.2067522210767
scalar MyScenario.node[88].veinsmobility 	maxSpeed 	13.864328580117
scalar MyScenario.node[88].veinsmobility 	totalDistance 	670.52070872733
scalar MyScenario.node[88].veinsmobility 	totalCO2Emission 	226.95946856569
scalar MyScenario.node[91].appl 	generatedWSMs 	1
scalar MyScenario.node[91].appl 	receivedWSMs 	8
scalar MyScenario.node[91].appl 	generatedBSMs 	0
scalar MyScenario.node[91].appl 	receivedBSMs 	0
scalar MyScenario.node[91].appl 	generatedWSAs 	0
scalar MyScenario.node[91].appl 	receivedWSAs 	0
scalar MyScenario.node[91].nic.phy80211p 	busyTime 	4.5014925373134e-05
scalar MyScenario.node[91].nic.mac1609_4 	ReceivedUnicastPackets 	0
scalar MyScenario.node[91].nic.mac1609_4 	ReceivedBroadcasts 	8
scalar MyScenario.node[91].nic.mac1609_4 	SentPackets 	1
scalar MyScenario.node[91].nic.mac1609_4 	SNIRLostPackets 	5
scalar MyScenario.node[91].nic.mac1609_4 	RXTXLostPackets 	6
scalar MyScenario.node[91].nic.mac1609_4 	TotalLostPackets 	11
scalar MyScenario.node[91].nic.mac1609_4 	DroppedPacketsInMac 	0
scalar MyScenario.node[91].nic.mac1609_4 	TooLittleTime 	0
scalar MyScenario.node[91].nic.mac1609_4 	TimesIntoBackoff 	1
scalar MyScenario.node[91].nic.mac1609_4 	SlotsBackoff 	3
scalar MyScenario.node[91].nic.mac1609_4 	NumInternalContention 	0
scalar MyScenario.node[91].nic.mac1609_4 	totalBusyTime 	0.002553048253
scalar MyScenario.node[91].veinsmobility 	startTime 	4
scalar MyScenario.node[91].veinsmobility 	totalTime 	66
scalar MyScenario.node[91].veinsmobility 	stopTime 	71
scalar MyScenario.node[91].veinsmobility 	minSpeed 	1.8970109139802
scalar MyScenario.node[91].veinsmobility 	maxSpeed 	13.897575970064
scalar MyScenario.node[91].veinsmobility 	totalDistance 	771.35921748578
scalar MyScenario.node[91].veinsmobility 	totalCO2Emission 	195.46119988072
scalar MyScenario.node[90].appl 	generatedWSMs 	1
scalar MyScenario.node[90].appl 	receivedWSMs 	16
scalar MyScenario.node[90].appl 	generatedBSMs 	0
scalar MyScenario.node[90].appl 	receivedBSMs 	0
scalar MyScenario.node[90].appl 	generatedWSAs 	0
scalar MyScenario.node[90].appl 	receivedWSAs 	0
scalar MyScenario.node[90].nic.phy80211p 	busyTime 	5.8865671641791e-05
scalar MyScenario.node[90].nic.mac1609_4 	ReceivedUnicastPackets 	0
scalar MyScenario.node[90].nic.mac1609_4 	ReceivedBroadcasts 	16
scalar MyScenario.node[90].nic.mac1609_4 	SentPackets 	1
scalar MyScenario.node[90].nic.mac1609_4 	SNIRLostPackets 	1
scalar MyScenario.node[90].nic.mac1609_4 	RXTXLostPackets 	1
scalar MyScenario.node[90].nic.mac1609_4 	TotalLostPackets 	2
scalar MyScenario.node[90].nic.mac1609_4 	DroppedPacketsInMac 	0
scalar MyScenario.node[90].nic.mac1609_4 	TooLittleTime 	0
scalar MyScenario.node[90].nic.mac1609_4 	TimesIntoBackoff 	1
scalar MyScenario.node[90].nic.mac1609_4 	SlotsBackoff 	1
scalar MyScenario.node[90].nic.mac1609_4 	NumInternalContention 	0
scalar MyScenario.node[90].nic.mac1609_4 	totalBusyTime 	0.004177
scalar MyScenario.node[90].veinsmobility 	startTime 	4
scalar MyScenario.node[90].veinsmobility 	totalTime 	66
scalar MyScenario.node[90].veinsmobility 	stopTime 	71
scalar MyScenario.node[90].veinsmobility 	minSpeed 	1.6803390414221
scalar MyScenario.node[90].veinsmobility 	maxSpeed 	13.875804672507
scalar MyScenario.node[90].veinsmobility 	totalDistance 	776.06083965447
scalar MyScenario.node[90].veinsmobility 	totalCO2Emission 	199.71211696439
scalar MyScenario.node[45].appl 	generatedWSMs 	1
scalar MyScenario.node[45].appl 	receivedWSMs 	1
scalar MyScenario.node[45].appl 	generatedBSMs 	0
scalar MyScenario.node[45].appl 	receivedBSMs 	0
scalar MyScenario.node[45].appl 	generatedWSAs 	0
scalar MyScenario.node[45].appl 	receivedWSAs 	0
scalar MyScenario.node[45].nic.phy80211p 	busyTime 	9.8028169014085e-06
scalar MyScenario.node[45].nic.mac1609_4 	ReceivedUnicastPackets 	0
scalar MyScenario.node[45].nic.mac1609_4 	ReceivedBroadcasts 	1
scalar MyScenario.node[45].nic.mac1609_4 	SentPackets 	1
scalar MyScenario.node[45].nic.mac1609_4 	SNIRLostPackets 	2
scalar MyScenario.node[45].nic.mac1609_4 	RXTXLostPackets 	6
scalar MyScenario.node[45].nic.mac1609_4 	TotalLostPackets 	8
scalar MyScenario.node[45].nic.mac1609_4 	DroppedPacketsInMac 	0
scalar MyScenario.node[45].nic.mac1609_4 	TooLittleTime 	0
scalar MyScenario.node[45].nic.mac1609_4 	TimesIntoBackoff 	1
scalar MyScenario.node[45].nic.mac1609_4 	SlotsBackoff 	2
scalar MyScenario.node[45].nic.mac1609_4 	NumInternalContention 	0
scalar MyScenario.node[45].nic.mac1609_4 	totalBusyTime 	0.000929
scalar MyScenario.node[45].veinsmobility 	startTime 	1
scalar MyScenario.node[45].veinsmobility 	totalTime 	70
scalar MyScenario.node[45].veinsmobility 	stopTime 	72
scalar MyScenario.node[45].veinsmobility 	minSpeed 	0.041563030617289
scalar MyScenario.node[45].veinsmobility 	maxSpeed 	13.894126115181
scalar MyScenario.node[45].veinsmobility 	totalDistance 	673.45718454958
scalar MyScenario.node[45].veinsmobility 	totalCO2Emission 	241.24877822536
scalar MyScenario.node[13].appl 	generatedWSMs 	1
scalar MyScenario.node[13].appl 	receivedWSMs 	9
scalar MyScenario.node[13].appl 	generatedBSMs 	0
scalar MyScenario.node[13].appl 	receivedBSMs 	0
scalar MyScenario.node[13].appl 	generatedWSAs 	0
scalar MyScenario.node[13].appl 	receivedWSAs 	0
scalar MyScenario.node[13].nic.phy80211p 	busyTime 	7.0888888888889e-05
scalar MyScenario.node[13].nic.mac1609_4 	ReceivedUnicastPackets 	0
scalar MyScenario.node[13].nic.mac1609_4 	ReceivedBroadcasts 	9
scalar MyScenario.node[13].nic.mac1609_4 	SentPackets 	1
scalar MyScenario.node[13].nic.mac1609_4 	SNIRLostPackets 	13
scalar MyScenario.node[13].nic.mac1609_4 	RXTXLostPackets 	0
scalar MyScenario.node[13].nic.mac1609_4 	TotalLostPackets 	13
scalar MyScenario.node[13].nic.mac1609_4 	DroppedPacketsInMac 	0
scalar MyScenario.node[13].nic.mac1609_4 	TooLittleTime 	0
scalar MyScenario.node[13].nic.mac1609_4 	TimesIntoBackoff 	1
scalar MyScenario.node[13].nic.mac1609_4 	SlotsBackoff 	2
scalar MyScenario.node[13].nic.mac1609_4 	NumInternalContention 	0
scalar MyScenario.node[13].nic.mac1609_4 	totalBusyTime 	0.002785
scalar MyScenario.node[13].veinsmobility 	startTime 	1
scalar MyScenario.node[13].veinsmobility 	totalTime 	71
scalar MyScenario.node[13].veinsmobility 	stopTime 	73
[...]
scalar MyScenario.node[14].nic.mac1609_4 	SentPackets 	1
scalar MyScenario.node[14].nic.mac1609_4 	SNIRLostPackets 	9
scalar MyScenario.node[14].nic.mac1609_4 	RXTXLostPackets 	2
scalar MyScenario.node[14].nic.mac1609_4 	TotalLostPackets 	11
scalar MyScenario.node[14].nic.mac1609_4 	DroppedPacketsInMac 	0
scalar MyScenario.node[14].nic.mac1609_4 	TooLittleTime 	0
scalar MyScenario.node[14].nic.mac1609_4 	TimesIntoBackoff 	1
scalar MyScenario.node[14].nic.mac1609_4 	SlotsBackoff 	0
scalar MyScenario.node[14].nic.mac1609_4 	NumInternalContention 	0
scalar MyScenario.node[14].nic.mac1609_4 	totalBusyTime 	0.003713090868
scalar MyScenario.node[14].veinsmobility 	startTime 	1
scalar MyScenario.node[14].veinsmobility 	totalTime 	105
scalar MyScenario.node[14].veinsmobility 	stopTime 	107
scalar MyScenario.node[14].veinsmobility 	minSpeed 	2.2629718214041
scalar MyScenario.node[14].veinsmobility 	maxSpeed 	13.875899058068
scalar MyScenario.node[14].veinsmobility 	totalDistance 	1266.0755432645
scalar MyScenario.node[14].veinsmobility 	totalCO2Emission 	303.86690734385
scalar MyScenario.node[80].appl 	generatedWSMs 	0
scalar MyScenario.node[80].appl 	receivedWSMs 	0
scalar MyScenario.node[80].appl 	generatedBSMs 	0
scalar MyScenario.node[80].appl 	receivedBSMs 	0
scalar MyScenario.node[80].appl 	generatedWSAs 	0
scalar MyScenario.node[80].appl 	receivedWSAs 	0
scalar MyScenario.node[80].nic.phy80211p 	busyTime 	2.1682242990654e-06
scalar MyScenario.node[80].nic.mac1609_4 	ReceivedUnicastPackets 	0
scalar MyScenario.node[80].nic.mac1609_4 	ReceivedBroadcasts 	0
scalar MyScenario.node[80].nic.mac1609_4 	SentPackets 	0
scalar MyScenario.node[80].nic.mac1609_4 	SNIRLostPackets 	1
scalar MyScenario.node[80].nic.mac1609_4 	RXTXLostPackets 	0
scalar MyScenario.node[80].nic.mac1609_4 	TotalLostPackets 	1
scalar MyScenario.node[80].nic.mac1609_4 	DroppedPacketsInMac 	0
scalar MyScenario.node[80].nic.mac1609_4 	TooLittleTime 	0
scalar MyScenario.node[80].nic.mac1609_4 	TimesIntoBackoff 	0
scalar MyScenario.node[80].nic.mac1609_4 	SlotsBackoff 	0
scalar MyScenario.node[80].nic.mac1609_4 	NumInternalContention 	0
scalar MyScenario.node[80].nic.mac1609_4 	totalBusyTime 	0.000232
scalar MyScenario.node[80].veinsmobility 	startTime 	1
scalar MyScenario.node[80].veinsmobility 	totalTime 	106
scalar MyScenario.node[80].veinsmobility 	stopTime 	108
scalar MyScenario.node[80].veinsmobility 	minSpeed 	1.1226276920788
scalar MyScenario.node[80].veinsmobility 	maxSpeed 	13.889503898961
scalar MyScenario.node[80].veinsmobility 	totalDistance 	1166.3066354283
scalar MyScenario.node[80].veinsmobility 	totalCO2Emission 	375.58589724463
scalar MyScenario.node[100].appl 	generatedWSMs 	1
scalar MyScenario.node[100].appl 	receivedWSMs 	20
scalar MyScenario.node[100].appl 	generatedBSMs 	0
scalar MyScenario.node[100].appl 	receivedBSMs 	0
scalar MyScenario.node[100].appl 	generatedWSAs 	0
scalar MyScenario.node[100].appl 	receivedWSAs 	0
scalar MyScenario.node[100].nic.phy80211p 	busyTime 	0.00010391666666667
scalar MyScenario.node[100].nic.mac1609_4 	ReceivedUnicastPackets 	0
scalar MyScenario.node[100].nic.mac1609_4 	ReceivedBroadcasts 	20
scalar MyScenario.node[100].nic.mac1609_4 	SentPackets 	1
scalar MyScenario.node[100].nic.mac1609_4 	SNIRLostPackets 	23
scalar MyScenario.node[100].nic.mac1609_4 	RXTXLostPackets 	2
scalar MyScenario.node[100].nic.mac1609_4 	TotalLostPackets 	25
scalar MyScenario.node[100].nic.mac1609_4 	DroppedPacketsInMac 	0
scalar MyScenario.node[100].nic.mac1609_4 	TooLittleTime 	0
scalar MyScenario.node[100].nic.mac1609_4 	TimesIntoBackoff 	1
scalar MyScenario.node[100].nic.mac1609_4 	SlotsBackoff 	0
scalar MyScenario.node[100].nic.mac1609_4 	NumInternalContention 	0
scalar MyScenario.node[100].nic.mac1609_4 	totalBusyTime 	0.006265
scalar MyScenario.node[100].veinsmobility 	startTime 	12
scalar MyScenario.node[100].veinsmobility 	totalTime 	95
scalar MyScenario.node[100].veinsmobility 	stopTime 	108
scalar MyScenario.node[100].veinsmobility 	minSpeed 	0.065583560138662
scalar MyScenario.node[100].veinsmobility 	maxSpeed 	13.868748690654
scalar MyScenario.node[100].veinsmobility 	totalDistance 	970.99320796877
scalar MyScenario.node[100].veinsmobility 	totalCO2Emission 	327.59290041484
scalar MyScenario.node[65].appl 	generatedWSMs 	0
scalar MyScenario.node[65].appl 	receivedWSMs 	0
scalar MyScenario.node[65].appl 	generatedBSMs 	0
scalar MyScenario.node[65].appl 	receivedBSMs 	0
scalar MyScenario.node[65].appl 	generatedWSAs 	0
scalar MyScenario.node[65].appl 	receivedWSAs 	0
scalar MyScenario.node[65].nic.phy80211p 	busyTime 	0
scalar MyScenario.node[65].nic.mac1609_4 	ReceivedUnicastPackets 	0
scalar MyScenario.node[65].nic.mac1609_4 	ReceivedBroadcasts 	0
scalar MyScenario.node[65].nic.mac1609_4 	SentPackets 	0
scalar MyScenario.node[65].nic.mac1609_4 	SNIRLostPackets 	0
scalar MyScenario.node[65].nic.mac1609_4 	RXTXLostPackets 	0
scalar MyScenario.node[65].nic.mac1609_4 	TotalLostPackets 	0
scalar MyScenario.node[65].nic.mac1609_4 	DroppedPacketsInMac 	0
scalar MyScenario.node[65].nic.mac1609_4 	TooLittleTime 	0
scalar MyScenario.node[65].nic.mac1609_4 	TimesIntoBackoff 	0
scalar MyScenario.node[65].nic.mac1609_4 	SlotsBackoff 	0
scalar MyScenario.node[65].nic.mac1609_4 	NumInternalContention 	0
scalar MyScenario.node[65].nic.mac1609_4 	totalBusyTime 	0
scalar MyScenario.node[65].veinsmobility 	startTime 	1
scalar MyScenario.node[65].veinsmobility 	totalTime 	108
scalar MyScenario.node[65].veinsmobility 	stopTime 	110
scalar MyScenario.node[65].veinsmobility 	minSpeed 	1.6660513672279
scalar MyScenario.node[65].veinsmobility 	maxSpeed 	13.899649448623
scalar MyScenario.node[65].veinsmobility 	totalDistance 	1374.9458272206
scalar MyScenario.node[65].veinsmobility 	totalCO2Emission 	271.04024180703
scalar MyScenario.node[33].appl 	generatedWSMs 	1
scalar MyScenario.node[33].appl 	receivedWSMs 	1
scalar MyScenario.node[33].appl 	generatedBSMs 	0
scalar MyScenario.node[33].appl 	receivedBSMs 	0
scalar MyScenario.node[33].appl 	generatedWSAs 	0
scalar MyScenario.node[33].appl 	receivedWSAs 	0
scalar MyScenario.node[33].nic.phy80211p 	busyTime 	2.5309090909091e-05
scalar MyScenario.node[33].nic.mac1609_4 	ReceivedUnicastPackets 	0
scalar MyScenario.node[33].nic.mac1609_4 	ReceivedBroadcasts 	1
scalar MyScenario.node[33].nic.mac1609_4 	SentPackets 	1
scalar MyScenario.node[33].nic.mac1609_4 	SNIRLostPackets 	11
scalar MyScenario.node[33].nic.mac1609_4 	RXTXLostPackets 	5
scalar MyScenario.node[33].nic.mac1609_4 	TotalLostPackets 	16
scalar MyScenario.node[33].nic.mac1609_4 	DroppedPacketsInMac 	0
scalar MyScenario.node[33].nic.mac1609_4 	TooLittleTime 	0
scalar MyScenario.node[33].nic.mac1609_4 	TimesIntoBackoff 	1
scalar MyScenario.node[33].nic.mac1609_4 	SlotsBackoff 	0
scalar MyScenario.node[33].nic.mac1609_4 	NumInternalContention 	0
scalar MyScenario.node[33].nic.mac1609_4 	totalBusyTime 	0.001161
scalar MyScenario.node[33].veinsmobility 	startTime 	1
scalar MyScenario.node[33].veinsmobility 	totalTime 	109
scalar MyScenario.node[33].veinsmobility 	stopTime 	111
scalar MyScenario.node[33].veinsmobility 	minSpeed 	1.3342572476249
scalar MyScenario.node[33].veinsmobility 	maxSpeed 	13.895955148595
scalar MyScenario.node[33].veinsmobility 	totalDistance 	1362.6426006996
scalar MyScenario.node[33].veinsmobility 	totalCO2Emission 	297.12400652688
scalar MyScenario.node[8].appl 	generatedWSMs 	1
scalar MyScenario.node[8].appl 	receivedWSMs 	8
scalar MyScenario.node[8].appl 	generatedBSMs 	0
scalar MyScenario.node[8].appl 	receivedBSMs 	0
scalar MyScenario.node[8].appl 	generatedWSAs 	0
scalar MyScenario.node[8].appl 	receivedWSAs 	0
scalar MyScenario.node[8].nic.phy80211p 	busyTime 	4.7642857142857e-05
scalar MyScenario.node[8].nic.mac1609_4 	ReceivedUnicastPackets 	0
scalar MyScenario.node[8].nic.mac1609_4 	ReceivedBroadcasts 	8
scalar MyScenario.node[8].nic.mac1609_4 	SentPackets 	1
scalar MyScenario.node[8].nic.mac1609_4 	SNIRLostPackets 	15
scalar MyScenario.node[8].nic.mac1609_4 	RXTXLostPackets 	8
scalar MyScenario.node[8].nic.mac1609_4 	TotalLostPackets 	23
scalar MyScenario.node[8].nic.mac1609_4 	DroppedPacketsInMac 	0
scalar MyScenario.node[8].nic.mac1609_4 	TooLittleTime 	0
scalar MyScenario.node[8].nic.mac1609_4 	TimesIntoBackoff 	1
scalar MyScenario.node[8].nic.mac1609_4 	SlotsBackoff 	0
scalar MyScenario.node[8].nic.mac1609_4 	NumInternalContention 	0
scalar MyScenario.node[8].nic.mac1609_4 	totalBusyTime 	0.003481
scalar MyScenario.node[8].veinsmobility 	startTime 	1
scalar MyScenario.node[8].veinsmobility 	totalTime 	111
scalar MyScenario.node[8].veinsmobility 	stopTime 	113
scalar MyScenario.node[8].veinsmobility 	minSpeed 	2.1399234052282
scalar MyScenario.node[8].veinsmobility 	maxSpeed 	13.898929676274
scalar MyScenario.node[8].veinsmobility 	totalDistance 	1354.6589588973
scalar MyScenario.node[8].veinsmobility 	totalCO2Emission 	329.47331126913
scalar MyScenario.node[38].appl 	generatedWSMs 	1
scalar MyScenario.node[38].appl 	receivedWSMs 	25
scalar MyScenario.node[38].appl 	generatedBSMs 	0
scalar MyScenario.node[38].appl 	receivedBSMs 	0
scalar MyScenario.node[38].appl 	generatedWSAs 	0
scalar MyScenario.node[38].appl 	receivedWSAs 	0
scalar MyScenario.node[38].nic.phy80211p 	busyTime 	5.8e-05
scalar MyScenario.node[38].nic.mac1609_4 	ReceivedUnicastPackets 	0
scalar MyScenario.node[38].nic.mac1609_4 	ReceivedBroadcasts 	25
scalar MyScenario.node[38].nic.mac1609_4 	SentPackets 	1
scalar MyScenario.node[38].nic.mac1609_4 	SNIRLostPackets 	3
scalar MyScenario.node[38].nic.mac1609_4 	RXTXLostPackets 	2
scalar MyScenario.node[38].nic.mac1609_4 	TotalLostPackets 	5
scalar MyScenario.node[38].nic.mac1609_4 	DroppedPacketsInMac 	0
scalar MyScenario.node[38].nic.mac1609_4 	TooLittleTime 	0
scalar MyScenario.node[38].nic.mac1609_4 	TimesIntoBackoff 	1
scalar MyScenario.node[38].nic.mac1609_4 	SlotsBackoff 	1
scalar MyScenario.node[38].nic.mac1609_4 	NumInternalContention 	0
scalar MyScenario.node[38].nic.mac1609_4 	totalBusyTime 	0.006729
scalar MyScenario.node[38].veinsmobility 	startTime 	1
scalar MyScenario.node[38].veinsmobility 	totalTime 	111
scalar MyScenario.node[38].veinsmobility 	stopTime 	113
scalar MyScenario.node[38].veinsmobility 	minSpeed 	0.064125573719133
scalar MyScenario.node[38].veinsmobility 	maxSpeed 	13.847920746868
scalar MyScenario.node[38].veinsmobility 	totalDistance 	1164.5635814223
scalar MyScenario.node[38].veinsmobility 	totalCO2Emission 	378.58961602468
scalar MyScenario.node[12].appl 	generatedWSMs 	1
scalar MyScenario.node[12].appl 	receivedWSMs 	8
scalar MyScenario.node[12].appl 	generatedBSMs 	0
scalar MyScenario.node[12].appl 	receivedBSMs 	0
scalar MyScenario.node[12].appl 	generatedWSAs 	0
scalar MyScenario.node[12].appl 	receivedWSAs 	0
scalar MyScenario.node[12].nic.phy80211p 	busyTime 	4.1428571428571e-05
scalar MyScenario.node[12].nic.mac1609_4 	ReceivedUnicastPackets 	0
scalar MyScenario.node[12].nic.mac1609_4 	ReceivedBroadcasts 	8
scalar MyScenario.node[12].nic.mac1609_4 	SentPackets 	1
scalar MyScenario.node[12].nic.mac1609_4 	SNIRLostPackets 	12
scalar MyScenario.node[12].nic.mac1609_4 	RXTXLostPackets 	7
scalar MyScenario.node[12].nic.mac1609_4 	TotalLostPackets 	19
scalar MyScenario.node[12].nic.mac1609_4 	DroppedPacketsInMac 	0
scalar MyScenario.node[12].nic.mac1609_4 	TooLittleTime 	0
scalar MyScenario.node[12].nic.mac1609_4 	TimesIntoBackoff 	1
scalar MyScenario.node[12].nic.mac1609_4 	SlotsBackoff 	2
scalar MyScenario.node[12].nic.mac1609_4 	NumInternalContention 	0
scalar MyScenario.node[12].nic.mac1609_4 	totalBusyTime 	0.003481003411
scalar MyScenario.node[12].veinsmobility 	startTime 	1
scalar MyScenario.node[12].veinsmobility 	totalTime 	111
scalar MyScenario.node[12].veinsmobility 	stopTime 	113
scalar MyScenario.node[12].veinsmobility 	minSpeed 	2.0090099055553
scalar MyScenario.node[12].veinsmobility 	maxSpeed 	13.898951577884
scalar MyScenario.node[12].veinsmobility 	totalDistance 	1266.8800674295
scalar MyScenario.node[12].veinsmobility 	totalCO2Emission 	355.29620562192
scalar MyScenario.node[61].appl 	generatedWSMs 	1
scalar MyScenario.node[61].appl 	receivedWSMs 	12
scalar MyScenario.node[61].appl 	generatedBSMs 	0
scalar MyScenario.node[61].appl 	receivedBSMs 	0
scalar MyScenario.node[61].appl 	generatedWSAs 	0
scalar MyScenario.node[61].appl 	receivedWSAs 	0
scalar MyScenario.node[61].nic.phy80211p 	busyTime 	3.6955752212389e-05
scalar MyScenario.node[61].nic.mac1609_4 	ReceivedUnicastPackets 	0
scalar MyScenario.node[61].nic.mac1609_4 	ReceivedBroadcasts 	12
scalar MyScenario.node[61].nic.mac1609_4 	SentPackets 	1
scalar MyScenario.node[61].nic.mac1609_4 	SNIRLostPackets 	6
scalar MyScenario.node[61].nic.mac1609_4 	RXTXLostPackets 	5
scalar MyScenario.node[61].nic.mac1609_4 	TotalLostPackets 	11
scalar MyScenario.node[61].nic.mac1609_4 	DroppedPacketsInMac 	0
scalar MyScenario.node[61].nic.mac1609_4 	TooLittleTime 	0
scalar MyScenario.node[61].nic.mac1609_4 	TimesIntoBackoff 	1
scalar MyScenario.node[61].nic.mac1609_4 	SlotsBackoff 	0
scalar MyScenario.node[61].nic.mac1609_4 	NumInternalContention 	0
scalar MyScenario.node[61].nic.mac1609_4 	totalBusyTime 	0.003481
scalar MyScenario.node[61].veinsmobility 	startTime 	1
scalar MyScenario.node[61].veinsmobility 	totalTime 	112
scalar MyScenario.node[61].veinsmobility 	stopTime 	114
scalar MyScenario.node[61].veinsmobility 	minSpeed 	0.16567670820568
scalar MyScenario.node[61].veinsmobility 	maxSpeed 	13.838912903215
scalar MyScenario.node[61].veinsmobility 	totalDistance 	1146.1315504034
scalar MyScenario.node[61].veinsmobility 	totalCO2Emission 	389.02829993179
scalar MyScenario.node[94].appl 	generatedWSMs 	1
scalar MyScenario.node[94].appl 	receivedWSMs 	9
scalar MyScenario.node[94].appl 	generatedBSMs 	0
scalar MyScenario.node[94].appl 	receivedBSMs 	0
scalar MyScenario.node[94].appl 	generatedWSAs 	0
scalar MyScenario.node[94].appl 	receivedWSAs 	0
scalar MyScenario.node[94].nic.phy80211p 	busyTime 	2.6928571428571e-05
scalar MyScenario.node[94].nic.mac1609_4 	ReceivedUnicastPackets 	0
scalar MyScenario.node[94].nic.mac1609_4 	ReceivedBroadcasts 	9
scalar MyScenario.node[94].nic.mac1609_4 	SentPackets 	1
scalar MyScenario.node[94].nic.mac1609_4 	SNIRLostPackets 	4
scalar MyScenario.node[94].nic.mac1609_4 	RXTXLostPackets 	6
scalar MyScenario.node[94].nic.mac1609_4 	TotalLostPackets 	10
scalar MyScenario.node[94].nic.mac1609_4 	DroppedPacketsInMac 	0
scalar MyScenario.node[94].nic.mac1609_4 	TooLittleTime 	0
scalar MyScenario.node[94].nic.mac1609_4 	TimesIntoBackoff 	1
scalar MyScenario.node[94].nic.mac1609_4 	SlotsBackoff 	0
scalar MyScenario.node[94].nic.mac1609_4 	NumInternalContention 	0
scalar MyScenario.node[94].nic.mac1609_4 	totalBusyTime 	0.002553
scalar MyScenario.node[94].veinsmobility 	startTime 	4
scalar MyScenario.node[94].veinsmobility 	totalTime 	111
scalar MyScenario.node[94].veinsmobility 	stopTime 	116
scalar MyScenario.node[94].veinsmobility 	minSpeed 	2.1909511074424
scalar MyScenario.node[94].veinsmobility 	maxSpeed 	13.874134353502
scalar MyScenario.node[94].veinsmobility 	totalDistance 	1269.3407748448
scalar MyScenario.node[94].veinsmobility 	totalCO2Emission 	365.95673790438
scalar MyScenario.node[37].appl 	generatedWSMs 	1
scalar MyScenario.node[37].appl 	receivedWSMs 	4
scalar MyScenario.node[37].appl 	generatedBSMs 	0
scalar MyScenario.node[37].appl 	receivedBSMs 	0
scalar MyScenario.node[37].appl 	generatedWSAs 	0
scalar MyScenario.node[37].appl 	receivedWSAs 	0
scalar MyScenario.node[37].nic.phy80211p 	busyTime 	3.4295652173913e-05
scalar MyScenario.node[37].nic.mac1609_4 	ReceivedUnicastPackets 	0
scalar MyScenario.node[37].nic.mac1609_4 	ReceivedBroadcasts 	4
scalar MyScenario.node[37].nic.mac1609_4 	SentPackets 	1
scalar MyScenario.node[37].nic.mac1609_4 	SNIRLostPackets 	13
scalar MyScenario.node[37].nic.mac1609_4 	RXTXLostPackets 	1
scalar MyScenario.node[37].nic.mac1609_4 	TotalLostPackets 	14
scalar MyScenario.node[37].nic.mac1609_4 	DroppedPacketsInMac 	0
scalar MyScenario.node[37].nic.mac1609_4 	TooLittleTime 	0
scalar MyScenario.node[37].nic.mac1609_4 	TimesIntoBackoff 	1
scalar MyScenario.node[37].nic.mac1609_4 	SlotsBackoff 	3
scalar MyScenario.node[37].nic.mac1609_4 	NumInternalContention 	0
scalar MyScenario.node[37].nic.mac1609_4 	totalBusyTime 	0.002321
scalar MyScenario.node[37].veinsmobility 	startTime 	1
scalar MyScenario.node[37].veinsmobility 	totalTime 	114
scalar MyScenario.node[37].veinsmobility 	stopTime 	116
scalar MyScenario.node[37].veinsmobility 	minSpeed 	0.00043630457545854
scalar MyScenario.node[37].veinsmobility 	maxSpeed 	13.884078560234
scalar MyScenario.node[37].veinsmobility 	totalDistance 	1271.4298717941
scalar MyScenario.node[37].veinsmobility 	totalCO2Emission 	335.83766510788
scalar MyScenario.node[10].appl 	generatedWSMs 	1
scalar MyScenario.node[10].appl 	receivedWSMs 	11
scalar MyScenario.node[10].appl 	generatedBSMs 	0
scalar MyScenario.node[10].appl 	receivedBSMs 	0
scalar MyScenario.node[10].appl 	generatedWSAs 	0
scalar MyScenario.node[10].appl 	receivedWSAs 	0
scalar MyScenario.node[10].nic.phy80211p 	busyTime 	3.2866666666667e-05
scalar MyScenario.node[10].nic.mac1609_4 	ReceivedUnicastPackets 	0
scalar MyScenario.node[10].nic.mac1609_4 	ReceivedBroadcasts 	11
scalar MyScenario.node[10].nic.mac1609_4 	SentPackets 	1
scalar MyScenario.node[10].nic.mac1609_4 	SNIRLostPackets 	6
scalar MyScenario.node[10].nic.mac1609_4 	RXTXLostPackets 	6
scalar MyScenario.node[10].nic.mac1609_4 	TotalLostPackets 	12
scalar MyScenario.node[10].nic.mac1609_4 	DroppedPacketsInMac 	0
scalar MyScenario.node[10].nic.mac1609_4 	TooLittleTime 	0
scalar MyScenario.node[10].nic.mac1609_4 	TimesIntoBackoff 	1
scalar MyScenario.node[10].nic.mac1609_4 	SlotsBackoff 	3
scalar MyScenario.node[10].nic.mac1609_4 	NumInternalContention 	0
scalar MyScenario.node[10].nic.mac1609_4 	totalBusyTime 	0.003249
scalar MyScenario.node[10].veinsmobility 	startTime 	1
scalar MyScenario.node[10].veinsmobility 	totalTime 	119
scalar MyScenario.node[10].veinsmobility 	stopTime 	121
scalar MyScenario.node[10].veinsmobility 	minSpeed 	2.1299658079399
scalar MyScenario.node[10].veinsmobility 	maxSpeed 	13.870218746387
scalar MyScenario.node[10].veinsmobility 	totalDistance 	1262.7962554411
scalar MyScenario.node[10].veinsmobility 	totalCO2Emission 	412.89832610894
scalar MyScenario.node[26].appl 	generatedWSMs 	1
scalar MyScenario.node[26].appl 	receivedWSMs 	4
scalar MyScenario.node[26].appl 	generatedBSMs 	0
scalar MyScenario.node[26].appl 	receivedBSMs 	0
scalar MyScenario.node[26].appl 	generatedWSAs 	0
scalar MyScenario.node[26].appl 	receivedWSAs 	0
scalar MyScenario.node[26].nic.phy80211p 	busyTime 	1.3352517985612e-05
scalar MyScenario.node[26].nic.mac1609_4 	ReceivedUnicastPackets 	0
scalar MyScenario.node[26].nic.mac1609_4 	ReceivedBroadcasts 	4
scalar MyScenario.node[26].nic.mac1609_4 	SentPackets 	1
scalar MyScenario.node[26].nic.mac1609_4 	SNIRLostPackets 	4
scalar MyScenario.node[26].nic.mac1609_4 	RXTXLostPackets 	2
scalar MyScenario.node[26].nic.mac1609_4 	TotalLostPackets 	6
scalar MyScenario.node[26].nic.mac1609_4 	DroppedPacketsInMac 	0
scalar MyScenario.node[26].nic.mac1609_4 	TooLittleTime 	0
scalar MyScenario.node[26].nic.mac1609_4 	TimesIntoBackoff 	1
scalar MyScenario.node[26].nic.mac1609_4 	SlotsBackoff 	2
scalar MyScenario.node[26].nic.mac1609_4 	NumInternalContention 	0
scalar MyScenario.node[26].nic.mac1609_4 	totalBusyTime 	0.001393
scalar MyScenario.node[26].veinsmobility 	startTime 	1
scalar MyScenario.node[26].veinsmobility 	totalTime 	138
scalar MyScenario.node[26].veinsmobility 	stopTime 	140
scalar MyScenario.node[26].veinsmobility 	minSpeed 	0.11913228659103
scalar MyScenario.node[26].veinsmobility 	maxSpeed 	13.87849196489
scalar MyScenario.node[26].veinsmobility 	totalDistance 	1563.2096320869
scalar MyScenario.node[26].veinsmobility 	totalCO2Emission 	444.45306497756
