version 2
run General-8-20170829-17:38:56-8100
attr configname General
attr datetime 20170829-17:38:56
attr density 100
attr experiment General
attr inifile omnetpp.ini
attr iterationvars $density=100
attr iterationvars2 "$density=100, $repetition=8"
attr measurement $density=100
attr network com.liborio.pi.MyScenario
attr processid 8100
attr repetition 8
attr replication #8
attr resultdir results
attr runnumber 8
attr seedset 8
param **.coreDebug false
param **.debug false
param *.**.nic.mac1609_4.bitrate 6Mbps
param *.**.nic.mac1609_4.txPower 20mW
param *.**.nic.mac1609_4.useServiceChannel true
param *.**.nic.phy80211p.analogueModels "xmldoc(\"config.xml\")"
param *.**.nic.phy80211p.antenna "xmldoc(\"antenna.xml\", \"/root/Antenna[@id='monopole']\")"
param *.**.nic.phy80211p.decider "xmldoc(\"config.xml\")"
param *.**.nic.phy80211p.sensitivity -84.39dBm
param *.**.nic.phy80211p.thermalNoise -110dBm
param *.**.nic.phy80211p.usePropagationDelay true
param *.**.nic.phy80211p.useThermalNoise true
param *.annotations.draw true
param *.connectionManager.drawMaxIntfDist false
param *.connectionManager.maxInterfDist 2600m
param *.connectionManager.sendDirect true
param *.manager.autoShutdown true
param *.manager.host "\"localhost\""
param *.manager.launchConfig "xmldoc(string(${density = 100, 200, 300, 400})+\"_\"+ string(${repetition})+\".launchd.xml\")"
param *.manager.port 9999
param *.manager.updateInterval 1s
param *.node[*].appl.beaconInterval 1s
param *.node[*].appl.dataOnSch true
param *.node[*].appl.headerLength "80 bit"
param *.node[*].appl.isSource false
param *.node[*].appl.numMsgs 100
param *.node[*].appl.sendBeacons false
param *.node[*].appl.stopTrafficTime 130s
param *.node[*].appl.wsmInterval 3s
param *.node[*].applType "\"Flooding\""
param *.node[*].veinsmobility.x 0
param *.node[*].veinsmobility.y 0
param *.node[*].veinsmobility.z 1.895
param *.node[*].veinsmobilityType.debug true
param *.node[0].appl.isSource true
param *.playgroundSizeX 2500m
param *.playgroundSizeY 2500m
param *.playgroundSizeZ 50m

scalar . 	density 	100
scalar MyScenario.node[55].appl 	generatedWSMs 	0
scalar MyScenario.node[55].appl 	receivedWSMs 	0
scalar MyScenario.node[55].appl 	generatedBSMs 	0
scalar MyScenario.node[55].appl 	receivedBSMs 	0
scalar MyScenario.node[55].appl 	generatedWSAs 	0
scalar MyScenario.node[55].appl 	receivedWSAs 	0
scalar MyScenario.node[55].nic.phy80211p 	busyTime 	0
scalar MyScenario.node[55].nic.mac1609_4 	ReceivedUnicastPackets 	0
scalar MyScenario.node[55].nic.mac1609_4 	ReceivedBroadcasts 	0
scalar MyScenario.node[55].nic.mac1609_4 	SentPackets 	0
scalar MyScenario.node[55].nic.mac1609_4 	SNIRLostPackets 	0
scalar MyScenario.node[55].nic.mac1609_4 	RXTXLostPackets 	0
scalar MyScenario.node[55].nic.mac1609_4 	TotalLostPackets 	0
scalar MyScenario.node[55].nic.mac1609_4 	DroppedPacketsInMac 	0
scalar MyScenario.node[55].nic.mac1609_4 	TooLittleTime 	0
scalar MyScenario.node[55].nic.mac1609_4 	TimesIntoBackoff 	0
scalar MyScenario.node[55].nic.mac1609_4 	SlotsBackoff 	0
scalar MyScenario.node[55].nic.mac1609_4 	NumInternalContention 	0
scalar MyScenario.node[55].nic.mac1609_4 	totalBusyTime 	0
scalar MyScenario.node[55].veinsmobility 	startTime 	1
scalar MyScenario.node[55].veinsmobility 	totalTime 	10
scalar MyScenario.node[55].veinsmobility 	stopTime 	12
scalar MyScenario.node[55].veinsmobility 	minSpeed 	1.909713353985
scalar MyScenario.node[55].veinsmobility 	maxSpeed 	13.110959983175
scalar MyScenario.node[55].veinsmobility 	totalDistance 	88.835693478588
scalar MyScenario.node[55].veinsmobility 	totalCO2Emission 	37.323304937523
scalar MyScenario.node[24].appl 	generatedWSMs 	1
scalar MyScenario.node[24].appl 	receivedWSMs 	9
scalar MyScenario.node[24].appl 	generatedBSMs 	0
scalar MyScenario.node[24].appl 	receivedBSMs 	0
scalar MyScenario.node[24].appl 	generatedWSAs 	0
scalar MyScenario.node[24].appl 	receivedWSAs 	0
scalar MyScenario.node[24].nic.phy80211p 	busyTime 	0.000116
scalar MyScenario.node[24].nic.mac1609_4 	ReceivedUnicastPackets 	0
scalar MyScenario.node[24].nic.mac1609_4 	ReceivedBroadcasts 	9
scalar MyScenario.node[24].nic.mac1609_4 	SentPackets 	1
scalar MyScenario.node[24].nic.mac1609_4 	SNIRLostPackets 	4
scalar MyScenario.node[24].nic.mac1609_4 	RXTXLostPackets 	7
scalar MyScenario.node[24].nic.mac1609_4 	TotalLostPackets 	11
scalar MyScenario.node[24].nic.mac1609_4 	DroppedPacketsInMac 	0
scalar MyScenario.node[24].nic.mac1609_4 	TooLittleTime 	0
scalar MyScenario.node[24].nic.mac1609_4 	TimesIntoBackoff 	1
scalar MyScenario.node[24].nic.mac1609_4 	SlotsBackoff 	0
scalar MyScenario.node[24].nic.mac1609_4 	NumInternalContention 	0
scalar MyScenario.node[24].nic.mac1609_4 	totalBusyTime 	0.00278508929
scalar MyScenario.node[24].veinsmobility 	startTime 	1
scalar MyScenario.node[24].veinsmobility 	totalTime 	25
scalar MyScenario.node[24].veinsmobility 	stopTime 	27
scalar MyScenario.node[24].veinsmobility 	minSpeed 	1.6880137102446
scalar MyScenario.node[24].veinsmobility 	maxSpeed 	13.639920826885
scalar MyScenario.node[24].veinsmobility 	totalDistance 	281.18441817227
scalar MyScenario.node[24].veinsmobility 	totalCO2Emission 	70.931175548055
scalar MyScenario.node[97].appl 	generatedWSMs 	0
scalar MyScenario.node[97].appl 	receivedWSMs 	0
scalar MyScenario.node[97].appl 	generatedBSMs 	0
scalar MyScenario.node[97].appl 	receivedBSMs 	0
scalar MyScenario.node[97].appl 	generatedWSAs 	0
scalar MyScenario.node[97].appl 	receivedWSAs 	0
scalar MyScenario.node[97].nic.phy80211p 	busyTime 	8.9230769230769e-06
scalar MyScenario.node[97].nic.mac1609_4 	ReceivedUnicastPackets 	0
scalar MyScenario.node[97].nic.mac1609_4 	ReceivedBroadcasts 	0
scalar MyScenario.node[97].nic.mac1609_4 	SentPackets 	0
scalar MyScenario.node[97].nic.mac1609_4 	SNIRLostPackets 	1
scalar MyScenario.node[97].nic.mac1609_4 	RXTXLostPackets 	0
scalar MyScenario.node[97].nic.mac1609_4 	TotalLostPackets 	1
scalar MyScenario.node[97].nic.mac1609_4 	DroppedPacketsInMac 	0
scalar MyScenario.node[97].nic.mac1609_4 	TooLittleTime 	0
scalar MyScenario.node[97].nic.mac1609_4 	TimesIntoBackoff 	0
scalar MyScenario.node[97].nic.mac1609_4 	SlotsBackoff 	0
scalar MyScenario.node[97].nic.mac1609_4 	NumInternalContention 	0
scalar MyScenario.node[97].nic.mac1609_4 	totalBusyTime 	0.000232
scalar MyScenario.node[97].veinsmobility 	startTime 	4
scalar MyScenario.node[97].veinsmobility 	totalTime 	25
scalar MyScenario.node[97].veinsmobility 	stopTime 	30
scalar MyScenario.node[97].veinsmobility 	minSpeed 	2.3793489079224
scalar MyScenario.node[97].veinsmobility 	maxSpeed 	13.89262114442
scalar MyScenario.node[97].veinsmobility 	totalDistance 	268.83557045936
scalar MyScenario.node[97].veinsmobility 	totalCO2Emission 	88.715450386869
scalar MyScenario.node[20].appl 	generatedWSMs 	0
scalar MyScenario.node[20].appl 	receivedWSMs 	0
scalar MyScenario.node[20].appl 	generatedBSMs 	0
scalar MyScenario.node[20].appl 	receivedBSMs 	0
scalar MyScenario.node[20].appl 	generatedWSAs 	0
scalar MyScenario.node[20].appl 	receivedWSAs 	0
scalar MyScenario.node[20].nic.phy80211p 	busyTime 	5.9487179487179e-06
scalar MyScenario.node[20].nic.mac1609_4 	ReceivedUnicastPackets 	0
scalar MyScenario.node[20].nic.mac1609_4 	ReceivedBroadcasts 	0
scalar MyScenario.node[20].nic.mac1609_4 	SentPackets 	0
scalar MyScenario.node[20].nic.mac1609_4 	SNIRLostPackets 	1
scalar MyScenario.node[20].nic.mac1609_4 	RXTXLostPackets 	0
scalar MyScenario.node[20].nic.mac1609_4 	TotalLostPackets 	1
scalar MyScenario.node[20].nic.mac1609_4 	DroppedPacketsInMac 	0
scalar MyScenario.node[20].nic.mac1609_4 	TooLittleTime 	0
scalar MyScenario.node[20].nic.mac1609_4 	TimesIntoBackoff 	0
scalar MyScenario.node[20].nic.mac1609_4 	SlotsBackoff 	0
scalar MyScenario.node[20].nic.mac1609_4 	NumInternalContention 	0
scalar MyScenario.node[20].nic.mac1609_4 	totalBusyTime 	0.000232
scalar MyScenario.node[20].veinsmobility 	startTime 	1
scalar MyScenario.node[20].veinsmobility 	totalTime 	38
scalar MyScenario.node[20].veinsmobility 	stopTime 	40
scalar MyScenario.node[20].veinsmobility 	minSpeed 	0.85275168282154
scalar MyScenario.node[20].veinsmobility 	maxSpeed 	13.668450730923
scalar MyScenario.node[20].veinsmobility 	totalDistance 	370.9571542875
scalar MyScenario.node[20].veinsmobility 	totalCO2Emission 	130.70945934521
scalar MyScenario.node[93].appl 	generatedWSMs 	0
scalar MyScenario.node[93].appl 	receivedWSMs 	0
scalar MyScenario.node[93].appl 	generatedBSMs 	0
scalar MyScenario.node[93].appl 	receivedBSMs 	0
scalar MyScenario.node[93].appl 	generatedWSAs 	0
scalar MyScenario.node[93].appl 	receivedWSAs 	0
scalar MyScenario.node[93].nic.phy80211p 	busyTime 	6.2702702702703e-06
scalar MyScenario.node[93].nic.mac1609_4 	ReceivedUnicastPackets 	0
scalar MyScenario.node[93].nic.mac1609_4 	ReceivedBroadcasts 	0
scalar MyScenario.node[93].nic.mac1609_4 	SentPackets 	0
scalar MyScenario.node[93].nic.mac1609_4 	SNIRLostPackets 	1
scalar MyScenario.node[93].nic.mac1609_4 	RXTXLostPackets 	0
scalar MyScenario.node[93].nic.mac1609_4 	TotalLostPackets 	1
scalar MyScenario.node[93].nic.mac1609_4 	DroppedPacketsInMac 	0
scalar MyScenario.node[93].nic.mac1609_4 	TooLittleTime 	0
scalar MyScenario.node[93].nic.mac1609_4 	TimesIntoBackoff 	0
scalar MyScenario.node[93].nic.mac1609_4 	SlotsBackoff 	0
scalar MyScenario.node[93].nic.mac1609_4 	NumInternalContention 	0
scalar MyScenario.node[93].nic.mac1609_4 	totalBusyTime 	0.000232
scalar MyScenario.node[93].veinsmobility 	startTime 	4
scalar MyScenario.node[93].veinsmobility 	totalTime 	36
scalar MyScenario.node[93].veinsmobility 	stopTime 	41
scalar MyScenario.node[93].veinsmobility 	minSpeed 	1.4500504465774
scalar MyScenario.node[93].veinsmobility 	maxSpeed 	13.819688187935
scalar MyScenario.node[93].veinsmobility 	totalDistance 	371.56791049649
scalar MyScenario.node[93].veinsmobility 	totalCO2Emission 	130.18124883985
scalar MyScenario.node[84].appl 	generatedWSMs 	1
scalar MyScenario.node[84].appl 	receivedWSMs 	7
scalar MyScenario.node[84].appl 	generatedBSMs 	0
scalar MyScenario.node[84].appl 	receivedBSMs 	0
scalar MyScenario.node[84].appl 	generatedWSAs 	0
scalar MyScenario.node[84].appl 	receivedWSAs 	0
scalar MyScenario.node[84].nic.phy80211p 	busyTime 	6.0761904761905e-05
scalar MyScenario.node[84].nic.mac1609_4 	ReceivedUnicastPackets 	0
scalar MyScenario.node[84].nic.mac1609_4 	ReceivedBroadcasts 	7
scalar MyScenario.node[84].nic.mac1609_4 	SentPackets 	1
scalar MyScenario.node[84].nic.mac1609_4 	SNIRLostPackets 	4
scalar MyScenario.node[84].nic.mac1609_4 	RXTXLostPackets 	3
scalar MyScenario.node[84].nic.mac1609_4 	TotalLostPackets 	7
scalar MyScenario.node[84].nic.mac1609_4 	DroppedPacketsInMac 	0
scalar MyScenario.node[84].nic.mac1609_4 	TooLittleTime 	0
scalar MyScenario.node[84].nic.mac1609_4 	TimesIntoBackoff 	1
scalar MyScenario.node[84].nic.mac1609_4 	SlotsBackoff 	2
scalar MyScenario.node[84].nic.mac1609_4 	NumInternalContention 	0
scalar MyScenario.node[84].nic.mac1609_4 	totalBusyTime 	0.002553
scalar MyScenario.node[84].veinsmobility 	startTime 	1
scalar MyScenario.node[84].veinsmobility 	totalTime 	41
scalar MyScenario.node[84].veinsmobility 	stopTime 	43
scalar MyScenario.node[84].veinsmobility 	minSpeed 	2.5300459742779
scalar MyScenario.node[84].veinsmobility 	maxSpeed 	13.899330459186
scalar MyScenario.node[84].veinsmobility 	totalDistance 	474.47130590846
scalar MyScenario.node[84].veinsmobility 	totalCO2Emission 	125.51608497736
scalar MyScenario.node[44].appl 	generatedWSMs 	1
scalar MyScenario.node[44].appl 	receivedWSMs 	9
scalar MyScenario.node[44].appl 	generatedBSMs 	0
scalar MyScenario.node[44].appl 	receivedBSMs 	0
scalar MyScenario.node[44].appl 	generatedWSAs 	0
scalar MyScenario.node[44].appl 	receivedWSAs 	0
scalar MyScenario.node[44].nic.phy80211p 	busyTime 	9.3904761904762e-05
scalar MyScenario.node[44].nic.mac1609_4 	ReceivedUnicastPackets 	0
scalar MyScenario.node[44].nic.mac1609_4 	ReceivedBroadcasts 	9
scalar MyScenario.node[44].nic.mac1609_4 	SentPackets 	1
scalar MyScenario.node[44].nic.mac1609_4 	SNIRLostPackets 	8
scalar MyScenario.node[44].nic.mac1609_4 	RXTXLostPackets 	4
scalar MyScenario.node[44].nic.mac1609_4 	TotalLostPackets 	12
scalar MyScenario.node[44].nic.mac1609_4 	DroppedPacketsInMac 	0
scalar MyScenario.node[44].nic.mac1609_4 	TooLittleTime 	0
scalar MyScenario.node[44].nic.mac1609_4 	TimesIntoBackoff 	1
scalar MyScenario.node[44].nic.mac1609_4 	SlotsBackoff 	0
scalar MyScenario.node[44].nic.mac1609_4 	NumInternalContention 	0
scalar MyScenario.node[44].nic.mac1609_4 	totalBusyTime 	0.003249
scalar MyScenario.node[44].veinsmobility 	startTime 	1
scalar MyScenario.node[44].veinsmobility 	totalTime 	41
scalar MyScenario.node[44].veinsmobility 	stopTime 	43
scalar MyScenario.node[44].veinsmobility 	minSpeed 	1.3408971355064
scalar MyScenario.node[44].veinsmobility 	maxSpeed 	13.800596093643
scalar MyScenario.node[44].veinsmobility 	totalDistance 	475.53784122304
scalar MyScenario.node[44].veinsmobility 	totalCO2Emission 	119.83726438831
scalar MyScenario.node[36].appl 	generatedWSMs 	1
scalar MyScenario.node[36].appl 	receivedWSMs 	3
scalar MyScenario.node[36].appl 	generatedBSMs 	0
scalar MyScenario.node[36].appl 	receivedBSMs 	0
scalar MyScenario.node[36].appl 	generatedWSAs 	0
scalar MyScenario.node[36].appl 	receivedWSAs 	0
scalar MyScenario.node[36].nic.phy80211p 	busyTime 	4.4190476190476e-05
scalar MyScenario.node[36].nic.mac1609_4 	ReceivedUnicastPackets 	0
scalar MyScenario.node[36].nic.mac1609_4 	ReceivedBroadcasts 	3
scalar MyScenario.node[36].nic.mac1609_4 	SentPackets 	1
scalar MyScenario.node[36].nic.mac1609_4 	SNIRLostPackets 	5
scalar MyScenario.node[36].nic.mac1609_4 	RXTXLostPackets 	4
scalar MyScenario.node[36].nic.mac1609_4 	TotalLostPackets 	9
scalar MyScenario.node[36].nic.mac1609_4 	DroppedPacketsInMac 	0
scalar MyScenario.node[36].nic.mac1609_4 	TooLittleTime 	0
scalar MyScenario.node[36].nic.mac1609_4 	TimesIntoBackoff 	1
scalar MyScenario.node[36].nic.mac1609_4 	SlotsBackoff 	0
scalar MyScenario.node[36].nic.mac1609_4 	NumInternalContention 	0
scalar MyScenario.node[36].nic.mac1609_4 	totalBusyTime 	0.001625009729
scalar MyScenario.node[36].veinsmobility 	startTime 	1
scalar MyScenario.node[36].veinsmobility 	totalTime 	41
scalar MyScenario.node[36].veinsmobility 	stopTime 	43
scalar MyScenario.node[36].veinsmobility 	minSpeed 	2.5077743027592
scalar MyScenario.node[36].veinsmobility 	maxSpeed 	13.835374187888
scalar MyScenario.node[36].veinsmobility 	totalDistance 	458.87273803187
scalar MyScenario.node[36].veinsmobility 	totalCO2Emission 	139.65972328795
scalar MyScenario.node[72].appl 	generatedWSMs 	1
scalar MyScenario.node[72].appl 	receivedWSMs 	6
scalar MyScenario.node[72].appl 	generatedBSMs 	0
scalar MyScenario.node[72].appl 	receivedBSMs 	0
scalar MyScenario.node[72].appl 	generatedWSAs 	0
scalar MyScenario.node[72].appl 	receivedWSAs 	0
scalar MyScenario.node[72].nic.phy80211p 	busyTime 	4.8558139534884e-05
scalar MyScenario.node[72].nic.mac1609_4 	ReceivedUnicastPackets 	0
scalar MyScenario.node[72].nic.mac1609_4 	ReceivedBroadcasts 	6
scalar MyScenario.node[72].nic.mac1609_4 	SentPackets 	1
scalar MyScenario.node[72].nic.mac1609_4 	SNIRLostPackets 	3
scalar MyScenario.node[72].nic.mac1609_4 	RXTXLostPackets 	7
scalar MyScenario.node[72].nic.mac1609_4 	TotalLostPackets 	10
scalar MyScenario.node[72].nic.mac1609_4 	DroppedPacketsInMac 	0
scalar MyScenario.node[72].nic.mac1609_4 	TooLittleTime 	0
scalar MyScenario.node[72].nic.mac1609_4 	TimesIntoBackoff 	1
scalar MyScenario.node[72].nic.mac1609_4 	SlotsBackoff 	3
scalar MyScenario.node[72].nic.mac1609_4 	NumInternalContention 	0
scalar MyScenario.node[72].nic.mac1609_4 	totalBusyTime 	0.002089004936
scalar MyScenario.node[72].veinsmobility 	startTime 	1
scalar MyScenario.node[72].veinsmobility 	totalTime 	42
scalar MyScenario.node[72].veinsmobility 	stopTime 	44
scalar MyScenario.node[72].veinsmobility 	minSpeed 	1.6108357550111
scalar MyScenario.node[72].veinsmobility 	maxSpeed 	13.868475050223
scalar MyScenario.node[72].veinsmobility 	totalDistance 	474.97757334187
scalar MyScenario.node[72].veinsmobility 	totalCO2Emission 	137.69076601244
scalar MyScenario.node[57].appl 	generatedWSMs 	1
scalar MyScenario.node[57].appl 	receivedWSMs 	11
scalar MyScenario.node[57].appl 	generatedBSMs 	0
scalar MyScenario.node[57].appl 	receivedBSMs 	0
scalar MyScenario.node[57].appl 	generatedWSAs 	0
scalar MyScenario.node[57].appl 	receivedWSAs 	0
scalar MyScenario.node[57].nic.phy80211p 	busyTime 	0.00013181818181818
scalar MyScenario.node[57].nic.mac1609_4 	ReceivedUnicastPackets 	0
scalar MyScenario.node[57].nic.mac1609_4 	ReceivedBroadcasts 	11
scalar MyScenario.node[57].nic.mac1609_4 	SentPackets 	1
scalar MyScenario.node[57].nic.mac1609_4 	SNIRLostPackets 	14
scalar MyScenario.node[57].nic.mac1609_4 	RXTXLostPackets 	0
scalar MyScenario.node[57].nic.mac1609_4 	TotalLostPackets 	14
scalar MyScenario.node[57].nic.mac1609_4 	DroppedPacketsInMac 	0
scalar MyScenario.node[57].nic.mac1609_4 	TooLittleTime 	0
scalar MyScenario.node[57].nic.mac1609_4 	TimesIntoBackoff 	1
scalar MyScenario.node[57].nic.mac1609_4 	SlotsBackoff 	3
scalar MyScenario.node[57].nic.mac1609_4 	NumInternalContention 	0
scalar MyScenario.node[57].nic.mac1609_4 	totalBusyTime 	0.003945
scalar MyScenario.node[57].veinsmobility 	startTime 	1
scalar MyScenario.node[57].veinsmobility 	totalTime 	43
scalar MyScenario.node[57].veinsmobility 	stopTime 	45
scalar MyScenario.node[57].veinsmobility 	minSpeed 	2.0277030720608
scalar MyScenario.node[57].veinsmobility 	maxSpeed 	13.887113030022
scalar MyScenario.node[57].veinsmobility 	totalDistance 	467.61298894073
scalar MyScenario.node[57].veinsmobility 	totalCO2Emission 	159.29310889555
scalar MyScenario.node[82].appl 	generatedWSMs 	0
scalar MyScenario.node[82].appl 	receivedWSMs 	0
scalar MyScenario.node[82].appl 	generatedBSMs 	0
scalar MyScenario.node[82].appl 	receivedBSMs 	0
scalar MyScenario.node[82].appl 	generatedWSAs 	0
scalar MyScenario.node[82].appl 	receivedWSAs 	0
scalar MyScenario.node[82].nic.phy80211p 	busyTime 	0
scalar MyScenario.node[82].nic.mac1609_4 	ReceivedUnicastPackets 	0
scalar MyScenario.node[82].nic.mac1609_4 	ReceivedBroadcasts 	0
scalar MyScenario.node[82].nic.mac1609_4 	SentPackets 	0
scalar MyScenario.node[82].nic.mac1609_4 	SNIRLostPackets 	0
scalar MyScenario.node[82].nic.mac1609_4 	RXTXLostPackets 	0
scalar MyScenario.node[82].nic.mac1609_4 	TotalLostPackets 	0
scalar MyScenario.node[82].nic.mac1609_4 	DroppedPacketsInMac 	0
scalar MyScenario.node[82].nic.mac1609_4 	TooLittleTime 	0
scalar MyScenario.node[82].nic.mac1609_4 	TimesIntoBackoff 	0
scalar MyScenario.node[82].nic.mac1609_4 	SlotsBackoff 	0
scalar MyScenario.node[82].nic.mac1609_4 	NumInternalContention 	0
scalar MyScenario.node[82].nic.mac1609_4 	totalBusyTime 	0
scalar MyScenario.node[82].veinsmobility 	startTime 	1
scalar MyScenario.node[82].veinsmobility 	totalTime 	43
scalar MyScenario.node[82].veinsmobility 	stopTime 	45
scalar MyScenario.node[82].veinsmobility 	minSpeed 	1.7069773450959
scalar MyScenario.node[82].veinsmobility 	maxSpeed 	13.682338706404
scalar MyScenario.node[82].veinsmobility 	totalDistance 	476.84576839856
scalar MyScenario.node[82].veinsmobility 	totalCO2Emission 	135.03005734837
scalar MyScenario.node[100].appl 	generatedWSMs 	1
scalar MyScenario.node[100].appl 	receivedWSMs 	1
scalar MyScenario.node[100].appl 	generatedBSMs 	0
scalar MyScenario.node[100].appl 	receivedBSMs 	0
scalar MyScenario.node[100].appl 	generatedWSAs 	0
scalar MyScenario.node[100].appl 	receivedWSAs 	0
scalar MyScenario.node[100].nic.phy80211p 	busyTime 	6.3272727272727e-05
scalar MyScenario.node[100].nic.mac1609_4 	ReceivedUnicastPackets 	0
scalar MyScenario.node[100].nic.mac1609_4 	ReceivedBroadcasts 	1
scalar MyScenario.node[100].nic.mac1609_4 	SentPackets 	1
scalar MyScenario.node[100].nic.mac1609_4 	SNIRLostPackets 	8
scalar MyScenario.node[100].nic.mac1609_4 	RXTXLostPackets 	8
scalar MyScenario.node[100].nic.mac1609_4 	TotalLostPackets 	16
scalar MyScenario.node[100].nic.mac1609_4 	DroppedPacketsInMac 	0
scalar MyScenario.node[100].nic.mac1609_4 	TooLittleTime 	0
scalar MyScenario.node[100].nic.mac1609_4 	TimesIntoBackoff 	1
scalar MyScenario.node[100].nic.mac1609_4 	SlotsBackoff 	0
scalar MyScenario.node[100].nic.mac1609_4 	NumInternalContention 	0
scalar MyScenario.node[100].nic.mac1609_4 	totalBusyTime 	0.001393026385
scalar MyScenario.node[100].veinsmobility 	startTime 	12
scalar MyScenario.node[100].veinsmobility 	totalTime 	32
scalar MyScenario.node[100].veinsmobility 	stopTime 	45
scalar MyScenario.node[100].veinsmobility 	minSpeed 	5.5463374192462
scalar MyScenario.node[100].veinsmobility 	maxSpeed 	13.555954069528
scalar MyScenario.node[100].veinsmobility 	totalDistance 	378.21944527818
scalar MyScenario.node[100].veinsmobility 	totalCO2Emission 	94.574252596741
scalar MyScenario.node[33].appl 	generatedWSMs 	1
scalar MyScenario.node[33].appl 	receivedWSMs 	4
scalar MyScenario.node[33].appl 	generatedBSMs 	0
scalar MyScenario.node[33].appl 	receivedBSMs 	0
scalar MyScenario.node[33].appl 	generatedWSAs 	0
scalar MyScenario.node[33].appl 	receivedWSAs 	0
scalar MyScenario.node[33].nic.phy80211p 	busyTime 	8.2488888888889e-05
scalar MyScenario.node[33].nic.mac1609_4 	ReceivedUnicastPackets 	0
scalar MyScenario.node[33].nic.mac1609_4 	ReceivedBroadcasts 	4
scalar MyScenario.node[33].nic.mac1609_4 	SentPackets 	1
scalar MyScenario.node[33].nic.mac1609_4 	SNIRLostPackets 	12
scalar MyScenario.node[33].nic.mac1609_4 	RXTXLostPackets 	0
scalar MyScenario.node[33].nic.mac1609_4 	TotalLostPackets 	12
scalar MyScenario.node[33].nic.mac1609_4 	DroppedPacketsInMac 	0
scalar MyScenario.node[33].nic.mac1609_4 	TooLittleTime 	0
scalar MyScenario.node[33].nic.mac1609_4 	TimesIntoBackoff 	1
scalar MyScenario.node[33].nic.mac1609_4 	SlotsBackoff 	2
scalar MyScenario.node[33].nic.mac1609_4 	NumInternalContention 	0
scalar MyScenario.node[33].nic.mac1609_4 	totalBusyTime 	0.001857
scalar MyScenario.node[33].veinsmobility 	startTime 	1
scalar MyScenario.node[33].veinsmobility 	totalTime 	44
scalar MyScenario.node[33].veinsmobility 	stopTime 	46
scalar MyScenario.node[33].veinsmobility 	minSpeed 	2.4094370465027
scalar MyScenario.node[33].veinsmobility 	maxSpeed 	13.837531554769
scalar MyScenario.node[33].veinsmobility 	totalDistance 	478.78743294681
scalar MyScenario.node[33].veinsmobility 	totalCO2Emission 	165.99366408244
scalar MyScenario.node[37].appl 	generatedWSMs 	0
scalar MyScenario.node[37].appl 	receivedWSMs 	0
scalar MyScenario.node[37].appl 	generatedBSMs 	0
scalar MyScenario.node[37].appl 	receivedBSMs 	0
scalar MyScenario.node[37].appl 	generatedWSAs 	0
scalar MyScenario.node[37].appl 	receivedWSAs 	0
scalar MyScenario.node[37].nic.phy80211p 	busyTime 	4.5391304347826e-05
scalar MyScenario.node[37].nic.mac1609_4 	ReceivedUnicastPackets 	0
scalar MyScenario.node[37].nic.mac1609_4 	ReceivedBroadcasts 	0
scalar MyScenario.node[37].nic.mac1609_4 	SentPackets 	0
scalar MyScenario.node[37].nic.mac1609_4 	SNIRLostPackets 	9
scalar MyScenario.node[37].nic.mac1609_4 	RXTXLostPackets 	0
scalar MyScenario.node[37].nic.mac1609_4 	TotalLostPackets 	9
scalar MyScenario.node[37].nic.mac1609_4 	DroppedPacketsInMac 	0
scalar MyScenario.node[37].nic.mac1609_4 	TooLittleTime 	0
scalar MyScenario.node[37].nic.mac1609_4 	TimesIntoBackoff 	0
scalar MyScenario.node[37].nic.mac1609_4 	SlotsBackoff 	0
scalar MyScenario.node[37].nic.mac1609_4 	NumInternalContention 	0
scalar MyScenario.node[37].nic.mac1609_4 	totalBusyTime 	0.000464016563
scalar MyScenario.node[37].veinsmobility 	startTime 	1
scalar MyScenario.node[37].veinsmobility 	totalTime 	45
scalar MyScenario.node[37].veinsmobility 	stopTime 	47
scalar MyScenario.node[37].veinsmobility 	minSpeed 	2.4417801132426
scalar MyScenario.node[37].veinsmobility 	maxSpeed 	13.736193940439
scalar MyScenario.node[37].veinsmobility 	totalDistance 	472.21128849446
scalar MyScenario.node[37].veinsmobility 	totalCO2Emission 	172.91116916699
scalar MyScenario.node[59].appl 	generatedWSMs 	1
scalar MyScenario.node[59].appl 	receivedWSMs 	1
scalar MyScenario.node[59].appl 	generatedBSMs 	0
scalar MyScenario.node[59].appl 	receivedBSMs 	0
scalar MyScenario.node[59].appl 	generatedWSAs 	0
scalar MyScenario.node[59].appl 	receivedWSAs 	0
scalar MyScenario.node[59].nic.phy80211p 	busyTime 	1.9744680851064e-05
scalar MyScenario.node[59].nic.mac1609_4 	ReceivedUnicastPackets 	0
scalar MyScenario.node[59].nic.mac1609_4 	ReceivedBroadcasts 	1
scalar MyScenario.node[59].nic.mac1609_4 	SentPackets 	1
scalar MyScenario.node[59].nic.mac1609_4 	SNIRLostPackets 	3
scalar MyScenario.node[59].nic.mac1609_4 	RXTXLostPackets 	5
scalar MyScenario.node[59].nic.mac1609_4 	TotalLostPackets 	8
scalar MyScenario.node[59].nic.mac1609_4 	DroppedPacketsInMac 	0
scalar MyScenario.node[59].nic.mac1609_4 	TooLittleTime 	0
scalar MyScenario.node[59].nic.mac1609_4 	TimesIntoBackoff 	1
scalar MyScenario.node[59].nic.mac1609_4 	SlotsBackoff 	3
scalar MyScenario.node[59].nic.mac1609_4 	NumInternalContention 	0
scalar MyScenario.node[59].nic.mac1609_4 	totalBusyTime 	0.000929
scalar MyScenario.node[59].veinsmobility 	startTime 	1
scalar MyScenario.node[59].veinsmobility 	totalTime 	46
scalar MyScenario.node[59].veinsmobility 	stopTime 	48
scalar MyScenario.node[59].veinsmobility 	minSpeed 	2.4337875745958
scalar MyScenario.node[59].veinsmobility 	maxSpeed 	13.874923742516
scalar MyScenario.node[59].veinsmobility 	totalDistance 	554.20208423211
scalar MyScenario.node[59].veinsmobility 	totalCO2Emission 	139.04446896066
scalar MyScenario.node[31].appl 	generatedWSMs 	0
scalar MyScenario.node[31].appl 	receivedWSMs 	0
scalar MyScenario.node[31].appl 	generatedBSMs 	0
scalar MyScenario.node[31].appl 	receivedBSMs 	0
scalar MyScenario.node[31].appl 	generatedWSAs 	0
scalar MyScenario.node[31].appl 	receivedWSAs 	0
scalar MyScenario.node[31].nic.phy80211p 	busyTime 	3.3833333333333e-05
scalar MyScenario.node[31].nic.mac1609_4 	ReceivedUnicastPackets 	0
scalar MyScenario.node[31].nic.mac1609_4 	ReceivedBroadcasts 	0
scalar MyScenario.node[31].nic.mac1609_4 	SentPackets 	0
scalar MyScenario.node[31].nic.mac1609_4 	SNIRLostPackets 	7
scalar MyScenario.node[31].nic.mac1609_4 	RXTXLostPackets 	0
scalar MyScenario.node[31].nic.mac1609_4 	TotalLostPackets 	7
scalar MyScenario.node[31].nic.mac1609_4 	DroppedPacketsInMac 	0
scalar MyScenario.node[31].nic.mac1609_4 	TooLittleTime 	0
scalar MyScenario.node[31].nic.mac1609_4 	TimesIntoBackoff 	0
scalar MyScenario.node[31].nic.mac1609_4 	SlotsBackoff 	0
scalar MyScenario.node[31].nic.mac1609_4 	NumInternalContention 	0
scalar MyScenario.node[31].nic.mac1609_4 	totalBusyTime 	0.000232
scalar MyScenario.node[31].veinsmobility 	startTime 	1
scalar MyScenario.node[31].veinsmobility 	totalTime 	47
scalar MyScenario.node[31].veinsmobility 	stopTime 	49
scalar MyScenario.node[31].veinsmobility 	minSpeed 	1.9732387009077
scalar MyScenario.node[31].veinsmobility 	maxSpeed 	13.846250076755
scalar MyScenario.node[31].veinsmobility 	totalDistance 	554.94397171071
scalar MyScenario.node[31].veinsmobility 	totalCO2Emission 	136.56186299198
scalar MyScenario.node[54].appl 	generatedWSMs 	0
scalar MyScenario.node[54].appl 	receivedWSMs 	0
scalar MyScenario.node[54].appl 	generatedBSMs 	0
scalar MyScenario.node[54].appl 	receivedBSMs 	0
scalar MyScenario.node[54].appl 	generatedWSAs 	0
scalar MyScenario.node[54].appl 	receivedWSAs 	0
scalar MyScenario.node[54].nic.phy80211p 	busyTime 	0
scalar MyScenario.node[54].nic.mac1609_4 	ReceivedUnicastPackets 	0
scalar MyScenario.node[54].nic.mac1609_4 	ReceivedBroadcasts 	0
scalar MyScenario.node[54].nic.mac1609_4 	SentPackets 	0
scalar MyScenario.node[54].nic.mac1609_4 	SNIRLostPackets 	0
scalar MyScenario.node[54].nic.mac1609_4 	RXTXLostPackets 	0
scalar MyScenario.node[54].nic.mac1609_4 	TotalLostPackets 	0
scalar MyScenario.node[54].nic.mac1609_4 	DroppedPacketsInMac 	0
scalar MyScenario.node[54].nic.mac1609_4 	TooLittleTime 	0
scalar MyScenario.node[54].nic.mac1609_4 	TimesIntoBackoff 	0
scalar MyScenario.node[54].nic.mac1609_4 	SlotsBackoff 	0
scalar MyScenario.node[54].nic.mac1609_4 	NumInternalContention 	0
scalar MyScenario.node[54].nic.mac1609_4 	totalBusyTime 	0
scalar MyScenario.node[54].veinsmobility 	startTime 	1
scalar MyScenario.node[54].veinsmobility 	totalTime 	49
scalar MyScenario.node[54].veinsmobility 	stopTime 	51
scalar MyScenario.node[54].veinsmobility 	minSpeed 	2.5626483310945
scalar MyScenario.node[54].veinsmobility 	maxSpeed 	13.891426181374
scalar MyScenario.node[54].veinsmobility 	totalDistance 	555.4313751201
scalar MyScenario.node[54].veinsmobility 	totalCO2Emission 	152.62183840525
scalar MyScenario.node[75].appl 	generatedWSMs 	1
scalar MyScenario.node[75].appl 	receivedWSMs 	1
scalar MyScenario.node[75].appl 	generatedBSMs 	0
scalar MyScenario.node[75].appl 	receivedBSMs 	0
scalar MyScenario.node[75].appl 	generatedWSAs 	0
scalar MyScenario.node[75].appl 	receivedWSAs 	0
scalar MyScenario.node[75].nic.phy80211p 	busyTime 	5.3538461538462e-05
scalar MyScenario.node[75].nic.mac1609_4 	ReceivedUnicastPackets 	0
scalar MyScenario.node[75].nic.mac1609_4 	ReceivedBroadcasts 	1
scalar MyScenario.node[75].nic.mac1609_4 	SentPackets 	1
scalar MyScenario.node[75].nic.mac1609_4 	SNIRLostPackets 	11
scalar MyScenario.node[75].nic.mac1609_4 	RXTXLostPackets 	0
scalar MyScenario.node[75].nic.mac1609_4 	TotalLostPackets 	11
scalar MyScenario.node[75].nic.mac1609_4 	DroppedPacketsInMac 	0
scalar MyScenario.node[75].nic.mac1609_4 	TooLittleTime 	0
scalar MyScenario.node[75].nic.mac1609_4 	TimesIntoBackoff 	1
scalar MyScenario.node[75].nic.mac1609_4 	SlotsBackoff 	0
scalar MyScenario.node[75].nic.mac1609_4 	NumInternalContention 	0
scalar MyScenario.node[75].nic.mac1609_4 	totalBusyTime 	0.001161
scalar MyScenario.node[75].veinsmobility 	startTime 	1
scalar MyScenario.node[75].veinsmobility 	totalTime 	51
scalar MyScenario.node[75].veinsmobility 	stopTime 	53
scalar MyScenario.node[75].veinsmobility 	minSpeed 	1.7702895485098
scalar MyScenario.node[75].veinsmobility 	maxSpeed 	13.77718622305
scalar MyScenario.node[75].veinsmobility 	totalDistance 	563.84220403394
scalar MyScenario.node[75].veinsmobility 	totalCO2Emission 	176.70111824486
scalar MyScenario.node[9].appl 	generatedWSMs 	1
scalar MyScenario.node[9].appl 	receivedWSMs 	1
scalar MyScenario.node[9].appl 	generatedBSMs 	0
scalar MyScenario.node[9].appl 	receivedBSMs 	0
scalar MyScenario.node[9].appl 	generatedWSAs 	0
scalar MyScenario.node[9].appl 	receivedWSAs 	0
scalar MyScenario.node[9].nic.phy80211p 	busyTime 	2.2307692307692e-05
scalar MyScenario.node[9].nic.mac1609_4 	ReceivedUnicastPackets 	0
scalar MyScenario.node[9].nic.mac1609_4 	ReceivedBroadcasts 	1
scalar MyScenario.node[9].nic.mac1609_4 	SentPackets 	1
scalar MyScenario.node[9].nic.mac1609_4 	SNIRLostPackets 	4
scalar MyScenario.node[9].nic.mac1609_4 	RXTXLostPackets 	9
scalar MyScenario.node[9].nic.mac1609_4 	TotalLostPackets 	13
scalar MyScenario.node[9].nic.mac1609_4 	DroppedPacketsInMac 	0
scalar MyScenario.node[9].nic.mac1609_4 	TooLittleTime 	0
scalar MyScenario.node[9].nic.mac1609_4 	TimesIntoBackoff 	1
scalar MyScenario.node[9].nic.mac1609_4 	SlotsBackoff 	1
scalar MyScenario.node[9].nic.mac1609_4 	NumInternalContention 	0
scalar MyScenario.node[9].nic.mac1609_4 	totalBusyTime 	0.000929019381
scalar MyScenario.node[9].veinsmobility 	startTime 	1
scalar MyScenario.node[9].veinsmobility 	totalTime 	51
scalar MyScenario.node[9].veinsmobility 	stopTime 	53
scalar MyScenario.node[9].veinsmobility 	minSpeed 	1.4662848361069
scalar MyScenario.node[9].veinsmobility 	maxSpeed 	13.846822990663
scalar MyScenario.node[9].veinsmobility 	totalDistance 	561.62104797418
scalar MyScenario.node[9].veinsmobility 	totalCO2Emission 	178.84722056396
scalar MyScenario.node[38].appl 	generatedWSMs 	1
scalar MyScenario.node[38].appl 	receivedWSMs 	6
scalar MyScenario.node[38].appl 	generatedBSMs 	0
scalar MyScenario.node[38].appl 	receivedBSMs 	0
scalar MyScenario.node[38].appl 	generatedWSAs 	0
scalar MyScenario.node[38].appl 	receivedWSAs 	0
scalar MyScenario.node[38].nic.phy80211p 	busyTime 	3.1230769230769e-05
scalar MyScenario.node[38].nic.mac1609_4 	ReceivedUnicastPackets 	0
scalar MyScenario.node[38].nic.mac1609_4 	ReceivedBroadcasts 	6
scalar MyScenario.node[38].nic.mac1609_4 	SentPackets 	1
scalar MyScenario.node[38].nic.mac1609_4 	SNIRLostPackets 	1
scalar MyScenario.node[38].nic.mac1609_4 	RXTXLostPackets 	10
scalar MyScenario.node[38].nic.mac1609_4 	TotalLostPackets 	11
scalar MyScenario.node[38].nic.mac1609_4 	DroppedPacketsInMac 	0
scalar MyScenario.node[38].nic.mac1609_4 	TooLittleTime 	0
scalar MyScenario.node[38].nic.mac1609_4 	TimesIntoBackoff 	1
scalar MyScenario.node[38].nic.mac1609_4 	SlotsBackoff 	1
scalar MyScenario.node[38].nic.mac1609_4 	NumInternalContention 	0
scalar MyScenario.node[38].nic.mac1609_4 	totalBusyTime 	0.001857068939
scalar MyScenario.node[38].veinsmobility 	startTime 	1
scalar MyScenario.node[38].veinsmobility 	totalTime 	51
scalar MyScenario.node[38].veinsmobility 	stopTime 	53
scalar MyScenario.node[38].veinsmobility 	minSpeed 	2.5851815555245
scalar MyScenario.node[38].veinsmobility 	maxSpeed 	13.870948350383
scalar MyScenario.node[38].veinsmobility 	totalDistance 	581.75166432624
scalar MyScenario.node[38].veinsmobility 	totalCO2Emission 	164.53523032889
scalar MyScenario.node[32].appl 	generatedWSMs 	1
scalar MyScenario.node[32].appl 	receivedWSMs 	6
scalar MyScenario.node[32].appl 	generatedBSMs 	0
scalar MyScenario.node[32].appl 	receivedBSMs 	0
scalar MyScenario.node[32].appl 	generatedWSAs 	0
scalar MyScenario.node[32].appl 	receivedWSAs 	0
scalar MyScenario.node[32].nic.phy80211p 	busyTime 	7.0037735849057e-05
scalar MyScenario.node[32].nic.mac1609_4 	ReceivedUnicastPackets 	0
scalar MyScenario.node[32].nic.mac1609_4 	ReceivedBroadcasts 	6
scalar MyScenario.node[32].nic.mac1609_4 	SentPackets 	1
scalar MyScenario.node[32].nic.mac1609_4 	SNIRLostPackets 	10
scalar MyScenario.node[32].nic.mac1609_4 	RXTXLostPackets 	1
scalar MyScenario.node[32].nic.mac1609_4 	TotalLostPackets 	11
scalar MyScenario.node[32].nic.mac1609_4 	DroppedPacketsInMac 	0
scalar MyScenario.node[32].nic.mac1609_4 	TooLittleTime 	0
scalar MyScenario.node[32].nic.mac1609_4 	TimesIntoBackoff 	1
scalar MyScenario.node[32].nic.mac1609_4 	SlotsBackoff 	2
scalar MyScenario.node[32].nic.mac1609_4 	NumInternalContention 	0
scalar MyScenario.node[32].nic.mac1609_4 	totalBusyTime 	0.002321
scalar MyScenario.node[32].veinsmobility 	startTime 	1
scalar MyScenario.node[32].veinsmobility 	totalTime 	52
scalar MyScenario.node[32].veinsmobility 	stopTime 	54
scalar MyScenario.node[32].veinsmobility 	minSpeed 	2.243208859046
scalar MyScenario.node[32].veinsmobility 	maxSpeed 	13.868836328574
scalar MyScenario.node[32].veinsmobility 	totalDistance 	578.29750963695
scalar MyScenario.node[32].veinsmobility 	totalCO2Emission 	164.69479157475
scalar MyScenario.node[50].appl 	generatedWSMs 	1
scalar MyScenario.node[50].appl 	receivedWSMs 	1
scalar MyScenario.node[50].appl 	generatedBSMs 	0
scalar MyScenario.node[50].appl 	receivedBSMs 	0
scalar MyScenario.node[50].appl 	generatedWSAs 	0
scalar MyScenario.node[50].appl 	receivedWSAs 	0
scalar MyScenario.node[50].nic.phy80211p 	busyTime 	8.4363636363636e-06
scalar MyScenario.node[50].nic.mac1609_4 	ReceivedUnicastPackets 	0
scalar MyScenario.node[50].nic.mac1609_4 	ReceivedBroadcasts 	1
scalar MyScenario.node[50].nic.mac1609_4 	SentPackets 	1
scalar MyScenario.node[50].nic.mac1609_4 	SNIRLostPackets 	1
scalar MyScenario.node[50].nic.mac1609_4 	RXTXLostPackets 	3
scalar MyScenario.node[50].nic.mac1609_4 	TotalLostPackets 	4
scalar MyScenario.node[50].nic.mac1609_4 	DroppedPacketsInMac 	0
scalar MyScenario.node[50].nic.mac1609_4 	TooLittleTime 	0
scalar MyScenario.node[50].nic.mac1609_4 	TimesIntoBackoff 	1
scalar MyScenario.node[50].nic.mac1609_4 	SlotsBackoff 	2
scalar MyScenario.node[50].nic.mac1609_4 	NumInternalContention 	0
scalar MyScenario.node[50].nic.mac1609_4 	totalBusyTime 	0.000697
scalar MyScenario.node[50].veinsmobility 	startTime 	1
scalar MyScenario.node[50].veinsmobility 	totalTime 	54
scalar MyScenario.node[50].veinsmobility 	stopTime 	56
scalar MyScenario.node[50].veinsmobility 	minSpeed 	1.4227115253452
scalar MyScenario.node[50].veinsmobility 	maxSpeed 	13.895384319546
scalar MyScenario.node[50].veinsmobility 	totalDistance 	572.93864759814
scalar MyScenario.node[50].veinsmobility 	totalCO2Emission 	203.52153316275
scalar MyScenario.node[95].appl 	generatedWSMs 	1
scalar MyScenario.node[95].appl 	receivedWSMs 	11
scalar MyScenario.node[95].appl 	generatedBSMs 	0
scalar MyScenario.node[95].appl 	receivedBSMs 	0
scalar MyScenario.node[95].appl 	generatedWSAs 	0
scalar MyScenario.node[95].appl 	receivedWSAs 	0
scalar MyScenario.node[95].nic.phy80211p 	busyTime 	6.6923076923077e-05
scalar MyScenario.node[95].nic.mac1609_4 	ReceivedUnicastPackets 	0
scalar MyScenario.node[95].nic.mac1609_4 	ReceivedBroadcasts 	11
scalar MyScenario.node[95].nic.mac1609_4 	SentPackets 	1
scalar MyScenario.node[95].nic.mac1609_4 	SNIRLostPackets 	4
scalar MyScenario.node[95].nic.mac1609_4 	RXTXLostPackets 	0
scalar MyScenario.node[95].nic.mac1609_4 	TotalLostPackets 	4
scalar MyScenario.node[95].nic.mac1609_4 	DroppedPacketsInMac 	0
scalar MyScenario.node[95].nic.mac1609_4 	TooLittleTime 	0
scalar MyScenario.node[95].nic.mac1609_4 	TimesIntoBackoff 	1
scalar MyScenario.node[95].nic.mac1609_4 	SlotsBackoff 	1
scalar MyScenario.node[95].nic.mac1609_4 	NumInternalContention 	0
scalar MyScenario.node[95].nic.mac1609_4 	totalBusyTime 	0.003249
scalar MyScenario.node[95].veinsmobility 	startTime 	4
scalar MyScenario.node[95].veinsmobility 	totalTime 	51
scalar MyScenario.node[95].veinsmobility 	stopTime 	56
scalar MyScenario.node[95].veinsmobility 	minSpeed 	2.2917816222645
scalar MyScenario.node[95].veinsmobility 	maxSpeed 	13.875708678504
scalar MyScenario.node[95].veinsmobility 	totalDistance 	576.86027584591
scalar MyScenario.node[95].veinsmobility 	totalCO2Emission 	161.16016992588
scalar MyScenario.node[19].appl 	generatedWSMs 	1
scalar MyScenario.node[19].appl 	receivedWSMs 	13
scalar MyScenario.node[19].appl 	generatedBSMs 	0
scalar MyScenario.node[19].appl 	receivedBSMs 	0
scalar MyScenario.node[19].appl 	generatedWSAs 	0
scalar MyScenario.node[19].appl 	receivedWSAs 	0
scalar MyScenario.node[19].nic.phy80211p 	busyTime 	6.919298245614e-05
scalar MyScenario.node[19].nic.mac1609_4 	ReceivedUnicastPackets 	0
scalar MyScenario.node[19].nic.mac1609_4 	ReceivedBroadcasts 	13
scalar MyScenario.node[19].nic.mac1609_4 	SentPackets 	1
scalar MyScenario.node[19].nic.mac1609_4 	SNIRLostPackets 	4
scalar MyScenario.node[19].nic.mac1609_4 	RXTXLostPackets 	10
scalar MyScenario.node[19].nic.mac1609_4 	TotalLostPackets 	14
scalar MyScenario.node[19].nic.mac1609_4 	DroppedPacketsInMac 	0
scalar MyScenario.node[19].nic.mac1609_4 	TooLittleTime 	0
scalar MyScenario.node[19].nic.mac1609_4 	TimesIntoBackoff 	1
scalar MyScenario.node[19].nic.mac1609_4 	SlotsBackoff 	1
scalar MyScenario.node[19].nic.mac1609_4 	NumInternalContention 	0
scalar MyScenario.node[19].nic.mac1609_4 	totalBusyTime 	0.003945
scalar MyScenario.node[19].veinsmobility 	startTime 	1
scalar MyScenario.node[19].veinsmobility 	totalTime 	56
scalar MyScenario.node[19].veinsmobility 	stopTime 	58
scalar MyScenario.node[19].veinsmobility 	minSpeed 	2.4095179134747
scalar MyScenario.node[19].veinsmobility 	maxSpeed 	13.885810054163
scalar MyScenario.node[19].veinsmobility 	totalDistance 	669.37027408679
scalar MyScenario.node[19].veinsmobility 	totalCO2Emission 	155.86602774815
scalar MyScenario.node[61].appl 	generatedWSMs 	1
scalar MyScenario.node[61].appl 	receivedWSMs 	12
scalar MyScenario.node[61].appl 	generatedBSMs 	0
scalar MyScenario.node[61].appl 	receivedBSMs 	0
scalar MyScenario.node[61].appl 	generatedWSAs 	0
scalar MyScenario.node[61].appl 	receivedWSAs 	0
scalar MyScenario.node[61].nic.phy80211p 	busyTime 	5.6982456140351e-05
scalar MyScenario.node[61].nic.mac1609_4 	ReceivedUnicastPackets 	0
scalar MyScenario.node[61].nic.mac1609_4 	ReceivedBroadcasts 	12
scalar MyScenario.node[61].nic.mac1609_4 	SentPackets 	1
scalar MyScenario.node[61].nic.mac1609_4 	SNIRLostPackets 	2
scalar MyScenario.node[61].nic.mac1609_4 	RXTXLostPackets 	10
scalar MyScenario.node[61].nic.mac1609_4 	TotalLostPackets 	12
scalar MyScenario.node[61].nic.mac1609_4 	DroppedPacketsInMac 	0
scalar MyScenario.node[61].nic.mac1609_4 	TooLittleTime 	0
scalar MyScenario.node[61].nic.mac1609_4 	TimesIntoBackoff 	1
scalar MyScenario.node[61].nic.mac1609_4 	SlotsBackoff 	3
scalar MyScenario.node[61].nic.mac1609_4 	NumInternalContention 	0
scalar MyScenario.node[61].nic.mac1609_4 	totalBusyTime 	0.003481
scalar MyScenario.node[61].veinsmobility 	startTime 	1
scalar MyScenario.node[61].veinsmobility 	totalTime 	56
scalar MyScenario.node[61].veinsmobility 	stopTime 	58
scalar MyScenario.node[61].veinsmobility 	minSpeed 	2.2974531752989
scalar MyScenario.node[61].veinsmobility 	maxSpeed 	13.897362263571
scalar MyScenario.node[61].veinsmobility 	totalDistance 	672.05552660031
scalar MyScenario.node[61].veinsmobility 	totalCO2Emission 	170.92340406318
scalar MyScenario.node[29].appl 	generatedWSMs 	0
scalar MyScenario.node[29].appl 	receivedWSMs 	0
scalar MyScenario.node[29].appl 	generatedBSMs 	0
scalar MyScenario.node[29].appl 	receivedBSMs 	0
scalar MyScenario.node[29].appl 	generatedWSAs 	0
scalar MyScenario.node[29].appl 	receivedWSAs 	0
scalar MyScenario.node[29].nic.phy80211p 	busyTime 	8e-06
scalar MyScenario.node[29].nic.mac1609_4 	ReceivedUnicastPackets 	0
scalar MyScenario.node[29].nic.mac1609_4 	ReceivedBroadcasts 	0
scalar MyScenario.node[29].nic.mac1609_4 	SentPackets 	0
scalar MyScenario.node[29].nic.mac1609_4 	SNIRLostPackets 	2
scalar MyScenario.node[29].nic.mac1609_4 	RXTXLostPackets 	0
scalar MyScenario.node[29].nic.mac1609_4 	TotalLostPackets 	2
scalar MyScenario.node[29].nic.mac1609_4 	DroppedPacketsInMac 	0
scalar MyScenario.node[29].nic.mac1609_4 	TooLittleTime 	0
scalar MyScenario.node[29].nic.mac1609_4 	TimesIntoBackoff 	0
scalar MyScenario.node[29].nic.mac1609_4 	SlotsBackoff 	0
scalar MyScenario.node[29].nic.mac1609_4 	NumInternalContention 	0
scalar MyScenario.node[29].nic.mac1609_4 	totalBusyTime 	0.000464
scalar MyScenario.node[29].veinsmobility 	startTime 	1
scalar MyScenario.node[29].veinsmobility 	totalTime 	57
scalar MyScenario.node[29].veinsmobility 	stopTime 	59
scalar MyScenario.node[29].veinsmobility 	minSpeed 	2.1047534465324
scalar MyScenario.node[29].veinsmobility 	maxSpeed 	13.852214724664
scalar MyScenario.node[29].veinsmobility 	totalDistance 	670.9861624448
scalar MyScenario.node[29].veinsmobility 	totalCO2Emission 	176.93994307304
scalar MyScenario.node[67].appl 	generatedWSMs 	1
scalar MyScenario.node[67].appl 	receivedWSMs 	18
scalar MyScenario.node[67].appl 	generatedBSMs 	0
scalar MyScenario.node[67].appl 	receivedBSMs 	0
scalar MyScenario.node[67].appl 	generatedWSAs 	0
scalar MyScenario.node[67].appl 	receivedWSAs 	0
scalar MyScenario.node[67].nic.phy80211p 	busyTime 	0.00012583050847458
scalar MyScenario.node[67].nic.mac1609_4 	ReceivedUnicastPackets 	0
scalar MyScenario.node[67].nic.mac1609_4 	ReceivedBroadcasts 	18
scalar MyScenario.node[67].nic.mac1609_4 	SentPackets 	1
scalar MyScenario.node[67].nic.mac1609_4 	SNIRLostPackets 	14
scalar MyScenario.node[67].nic.mac1609_4 	RXTXLostPackets 	10
scalar MyScenario.node[67].nic.mac1609_4 	TotalLostPackets 	24
scalar MyScenario.node[67].nic.mac1609_4 	DroppedPacketsInMac 	0
scalar MyScenario.node[67].nic.mac1609_4 	TooLittleTime 	0
scalar MyScenario.node[67].nic.mac1609_4 	TimesIntoBackoff 	1
scalar MyScenario.node[67].nic.mac1609_4 	SlotsBackoff 	3
scalar MyScenario.node[67].nic.mac1609_4 	NumInternalContention 	0
scalar MyScenario.node[67].nic.mac1609_4 	totalBusyTime 	0.005569066628
scalar MyScenario.node[67].veinsmobility 	startTime 	1
scalar MyScenario.node[67].veinsmobility 	totalTime 	58
scalar MyScenario.node[67].veinsmobility 	stopTime 	60
scalar MyScenario.node[67].veinsmobility 	minSpeed 	0.0022079111206498
scalar MyScenario.node[67].veinsmobility 	maxSpeed 	13.820812168019
scalar MyScenario.node[67].veinsmobility 	totalDistance 	577.23650248744
scalar MyScenario.node[67].veinsmobility 	totalCO2Emission 	183.21810642869
scalar MyScenario.node[6].appl 	generatedWSMs 	1
scalar MyScenario.node[6].appl 	receivedWSMs 	6
scalar MyScenario.node[6].appl 	generatedBSMs 	0
scalar MyScenario.node[6].appl 	receivedBSMs 	0
scalar MyScenario.node[6].appl 	generatedWSAs 	0
scalar MyScenario.node[6].appl 	receivedWSAs 	0
scalar MyScenario.node[6].nic.phy80211p 	busyTime 	0.00010053333333333
scalar MyScenario.node[6].nic.mac1609_4 	ReceivedUnicastPackets 	0
scalar MyScenario.node[6].nic.mac1609_4 	ReceivedBroadcasts 	6
scalar MyScenario.node[6].nic.mac1609_4 	SentPackets 	1
scalar MyScenario.node[6].nic.mac1609_4 	SNIRLostPackets 	20
scalar MyScenario.node[6].nic.mac1609_4 	RXTXLostPackets 	8
scalar MyScenario.node[6].nic.mac1609_4 	TotalLostPackets 	28
scalar MyScenario.node[6].nic.mac1609_4 	DroppedPacketsInMac 	0
scalar MyScenario.node[6].nic.mac1609_4 	TooLittleTime 	0
scalar MyScenario.node[6].nic.mac1609_4 	TimesIntoBackoff 	1
scalar MyScenario.node[6].nic.mac1609_4 	SlotsBackoff 	0
scalar MyScenario.node[6].nic.mac1609_4 	NumInternalContention 	0
scalar MyScenario.node[6].nic.mac1609_4 	totalBusyTime 	0.002785
scalar MyScenario.node[6].veinsmobility 	startTime 	1
scalar MyScenario.node[6].veinsmobility 	totalTime 	59
scalar MyScenario.node[6].veinsmobility 	stopTime 	61
scalar MyScenario.node[6].veinsmobility 	minSpeed 	1.3339881885564
scalar MyScenario.node[6].veinsmobility 	maxSpeed 	13.867877837783
scalar MyScenario.node[6].veinsmobility 	totalDistance 	670.02915406759
scalar MyScenario.node[6].veinsmobility 	totalCO2Emission 	188.83381245388
scalar MyScenario.node[43].appl 	generatedWSMs 	1
scalar MyScenario.node[43].appl 	receivedWSMs 	2
scalar MyScenario.node[43].appl 	generatedBSMs 	0
scalar MyScenario.node[43].appl 	receivedBSMs 	0
scalar MyScenario.node[43].appl 	generatedWSAs 	0
scalar MyScenario.node[43].appl 	receivedWSAs 	0
scalar MyScenario.node[43].nic.phy80211p 	busyTime 	7.6065573770492e-05
scalar MyScenario.node[43].nic.mac1609_4 	ReceivedUnicastPackets 	0
scalar MyScenario.node[43].nic.mac1609_4 	ReceivedBroadcasts 	2
scalar MyScenario.node[43].nic.mac1609_4 	SentPackets 	1
scalar MyScenario.node[43].nic.mac1609_4 	SNIRLostPackets 	18
scalar MyScenario.node[43].nic.mac1609_4 	RXTXLostPackets 	3
scalar MyScenario.node[43].nic.mac1609_4 	TotalLostPackets 	21
scalar MyScenario.node[43].nic.mac1609_4 	DroppedPacketsInMac 	0
scalar MyScenario.node[43].nic.mac1609_4 	TooLittleTime 	0
scalar MyScenario.node[43].nic.mac1609_4 	TimesIntoBackoff 	1
scalar MyScenario.node[43].nic.mac1609_4 	SlotsBackoff 	1
scalar MyScenario.node[43].nic.mac1609_4 	NumInternalContention 	0
scalar MyScenario.node[43].nic.mac1609_4 	totalBusyTime 	0.002089
scalar MyScenario.node[43].veinsmobility 	startTime 	1
scalar MyScenario.node[43].veinsmobility 	totalTime 	60
scalar MyScenario.node[43].veinsmobility 	stopTime 	62
scalar MyScenario.node[43].veinsmobility 	minSpeed 	0.13497414011071
scalar MyScenario.node[43].veinsmobility 	maxSpeed 	13.894554768852
scalar MyScenario.node[43].veinsmobility 	totalDistance 	659.91091634366
scalar MyScenario.node[43].veinsmobility 	totalCO2Emission 	185.93760601371
scalar MyScenario.node[73].appl 	generatedWSMs 	0
scalar MyScenario.node[73].appl 	receivedWSMs 	0
scalar MyScenario.node[73].appl 	generatedBSMs 	0
scalar MyScenario.node[73].appl 	receivedBSMs 	0
scalar MyScenario.node[73].appl 	generatedWSAs 	0
scalar MyScenario.node[73].appl 	receivedWSAs 	0
scalar MyScenario.node[73].nic.phy80211p 	busyTime 	4.944262295082e-05
scalar MyScenario.node[73].nic.mac1609_4 	ReceivedUnicastPackets 	0
scalar MyScenario.node[73].nic.mac1609_4 	ReceivedBroadcasts 	0
scalar MyScenario.node[73].nic.mac1609_4 	SentPackets 	0
scalar MyScenario.node[73].nic.mac1609_4 	SNIRLostPackets 	13
scalar MyScenario.node[73].nic.mac1609_4 	RXTXLostPackets 	0
scalar MyScenario.node[73].nic.mac1609_4 	TotalLostPackets 	13
scalar MyScenario.node[73].nic.mac1609_4 	DroppedPacketsInMac 	0
scalar MyScenario.node[73].nic.mac1609_4 	TooLittleTime 	0
scalar MyScenario.node[73].nic.mac1609_4 	TimesIntoBackoff 	0
scalar MyScenario.node[73].nic.mac1609_4 	SlotsBackoff 	0
scalar MyScenario.node[73].nic.mac1609_4 	NumInternalContention 	0
scalar MyScenario.node[73].nic.mac1609_4 	totalBusyTime 	0.000928
scalar MyScenario.node[73].veinsmobility 	startTime 	1
scalar MyScenario.node[73].veinsmobility 	totalTime 	60
scalar MyScenario.node[73].veinsmobility 	stopTime 	62
scalar MyScenario.node[73].veinsmobility 	minSpeed 	1.7243573499611
scalar MyScenario.node[73].veinsmobility 	maxSpeed 	13.8789868552
scalar MyScenario.node[73].veinsmobility 	totalDistance 	671.16022181721
scalar MyScenario.node[73].veinsmobility 	totalCO2Emission 	204.18847485874
scalar MyScenario.node[68].appl 	generatedWSMs 	1
scalar MyScenario.node[68].appl 	receivedWSMs 	1
scalar MyScenario.node[68].appl 	generatedBSMs 	0
scalar MyScenario.node[68].appl 	receivedBSMs 	0
scalar MyScenario.node[68].appl 	generatedWSAs 	0
scalar MyScenario.node[68].appl 	receivedWSAs 	0
scalar MyScenario.node[68].nic.phy80211p 	busyTime 	4.4190476190476e-05
scalar MyScenario.node[68].nic.mac1609_4 	ReceivedUnicastPackets 	0
scalar MyScenario.node[68].nic.mac1609_4 	ReceivedBroadcasts 	1
scalar MyScenario.node[68].nic.mac1609_4 	SentPackets 	1
scalar MyScenario.node[68].nic.mac1609_4 	SNIRLostPackets 	11
scalar MyScenario.node[68].nic.mac1609_4 	RXTXLostPackets 	4
scalar MyScenario.node[68].nic.mac1609_4 	TotalLostPackets 	15
scalar MyScenario.node[68].nic.mac1609_4 	DroppedPacketsInMac 	0
scalar MyScenario.node[68].nic.mac1609_4 	TooLittleTime 	0
scalar MyScenario.node[68].nic.mac1609_4 	TimesIntoBackoff 	1
scalar MyScenario.node[68].nic.mac1609_4 	SlotsBackoff 	2
scalar MyScenario.node[68].nic.mac1609_4 	NumInternalContention 	0
scalar MyScenario.node[68].nic.mac1609_4 	totalBusyTime 	0.000929
scalar MyScenario.node[68].veinsmobility 	startTime 	1
scalar MyScenario.node[68].veinsmobility 	totalTime 	62
scalar MyScenario.node[68].veinsmobility 	stopTime 	64
scalar MyScenario.node[68].veinsmobility 	minSpeed 	1.4645417755703
scalar MyScenario.node[68].veinsmobility 	maxSpeed 	13.880188875226
scalar MyScenario.node[68].veinsmobility 	totalDistance 	774.91291949254
scalar MyScenario.node[68].veinsmobility 	totalCO2Emission 	158.69553591619
scalar MyScenario.node[7].appl 	generatedWSMs 	1
scalar MyScenario.node[7].appl 	receivedWSMs 	7
scalar MyScenario.node[7].appl 	generatedBSMs 	0
scalar MyScenario.node[7].appl 	receivedBSMs 	0
scalar MyScenario.node[7].appl 	generatedWSAs 	0
scalar MyScenario.node[7].appl 	receivedWSAs 	0
scalar MyScenario.node[7].nic.phy80211p 	busyTime 	3.9875e-05
scalar MyScenario.node[7].nic.mac1609_4 	ReceivedUnicastPackets 	0
scalar MyScenario.node[7].nic.mac1609_4 	ReceivedBroadcasts 	7
scalar MyScenario.node[7].nic.mac1609_4 	SentPackets 	1
scalar MyScenario.node[7].nic.mac1609_4 	SNIRLostPackets 	4
scalar MyScenario.node[7].nic.mac1609_4 	RXTXLostPackets 	4
scalar MyScenario.node[7].nic.mac1609_4 	TotalLostPackets 	8
scalar MyScenario.node[7].nic.mac1609_4 	DroppedPacketsInMac 	0
scalar MyScenario.node[7].nic.mac1609_4 	TooLittleTime 	0
scalar MyScenario.node[7].nic.mac1609_4 	TimesIntoBackoff 	1
scalar MyScenario.node[7].nic.mac1609_4 	SlotsBackoff 	0
scalar MyScenario.node[7].nic.mac1609_4 	NumInternalContention 	0
scalar MyScenario.node[7].nic.mac1609_4 	totalBusyTime 	0.002321
scalar MyScenario.node[7].veinsmobility 	startTime 	1
scalar MyScenario.node[7].veinsmobility 	totalTime 	63
scalar MyScenario.node[7].veinsmobility 	stopTime 	65
scalar MyScenario.node[7].veinsmobility 	minSpeed 	1.3712349104928
scalar MyScenario.node[7].veinsmobility 	maxSpeed 	13.864672936546
scalar MyScenario.node[7].veinsmobility 	totalDistance 	759.74694576832
scalar MyScenario.node[7].veinsmobility 	totalCO2Emission 	186.78302344775
scalar MyScenario.node[40].appl 	generatedWSMs 	0
scalar MyScenario.node[40].appl 	receivedWSMs 	0
scalar MyScenario.node[40].appl 	generatedBSMs 	0
scalar MyScenario.node[40].appl 	receivedBSMs 	0
scalar MyScenario.node[40].appl 	generatedWSAs 	0
scalar MyScenario.node[40].appl 	receivedWSAs 	0
scalar MyScenario.node[40].nic.phy80211p 	busyTime 	2.175e-05
scalar MyScenario.node[40].nic.mac1609_4 	ReceivedUnicastPackets 	0
scalar MyScenario.node[40].nic.mac1609_4 	ReceivedBroadcasts 	0
scalar MyScenario.node[40].nic.mac1609_4 	SentPackets 	0
scalar MyScenario.node[40].nic.mac1609_4 	SNIRLostPackets 	6
scalar MyScenario.node[40].nic.mac1609_4 	RXTXLostPackets 	0
scalar MyScenario.node[40].nic.mac1609_4 	TotalLostPackets 	6
scalar MyScenario.node[40].nic.mac1609_4 	DroppedPacketsInMac 	0
scalar MyScenario.node[40].nic.mac1609_4 	TooLittleTime 	0
scalar MyScenario.node[40].nic.mac1609_4 	TimesIntoBackoff 	0
scalar MyScenario.node[40].nic.mac1609_4 	SlotsBackoff 	0
scalar MyScenario.node[40].nic.mac1609_4 	NumInternalContention 	0
scalar MyScenario.node[40].nic.mac1609_4 	totalBusyTime 	0.000928
scalar MyScenario.node[40].veinsmobility 	startTime 	1
scalar MyScenario.node[40].veinsmobility 	totalTime 	63
scalar MyScenario.node[40].veinsmobility 	stopTime 	65
scalar MyScenario.node[40].veinsmobility 	minSpeed 	2.1660937392386
scalar MyScenario.node[40].veinsmobility 	maxSpeed 	13.844203914446
scalar MyScenario.node[40].veinsmobility 	totalDistance 	673.82280227109
scalar MyScenario.node[40].veinsmobility 	totalCO2Emission 	219.28133241981
scalar MyScenario.node[94].appl 	generatedWSMs 	1
scalar MyScenario.node[94].appl 	receivedWSMs 	4
scalar MyScenario.node[94].appl 	generatedBSMs 	0
scalar MyScenario.node[94].appl 	receivedBSMs 	0
scalar MyScenario.node[94].appl 	generatedWSAs 	0
scalar MyScenario.node[94].appl 	receivedWSAs 	0
scalar MyScenario.node[94].nic.phy80211p 	busyTime 	4.5639344262295e-05
scalar MyScenario.node[94].nic.mac1609_4 	ReceivedUnicastPackets 	0
scalar MyScenario.node[94].nic.mac1609_4 	ReceivedBroadcasts 	4
scalar MyScenario.node[94].nic.mac1609_4 	SentPackets 	1
scalar MyScenario.node[94].nic.mac1609_4 	SNIRLostPackets 	8
scalar MyScenario.node[94].nic.mac1609_4 	RXTXLostPackets 	1
scalar MyScenario.node[94].nic.mac1609_4 	TotalLostPackets 	9
scalar MyScenario.node[94].nic.mac1609_4 	DroppedPacketsInMac 	0
scalar MyScenario.node[94].nic.mac1609_4 	TooLittleTime 	0
scalar MyScenario.node[94].nic.mac1609_4 	TimesIntoBackoff 	1
scalar MyScenario.node[94].nic.mac1609_4 	SlotsBackoff 	2
scalar MyScenario.node[94].nic.mac1609_4 	NumInternalContention 	0
scalar MyScenario.node[94].nic.mac1609_4 	totalBusyTime 	0.001857084497
scalar MyScenario.node[94].veinsmobility 	startTime 	4
scalar MyScenario.node[94].veinsmobility 	totalTime 	60
scalar MyScenario.node[94].veinsmobility 	stopTime 	65
scalar MyScenario.node[94].veinsmobility 	minSpeed 	1.80749892944
scalar MyScenario.node[94].veinsmobility 	maxSpeed 	13.899137405446
scalar MyScenario.node[94].veinsmobility 	totalDistance 	674.57957959856
scalar MyScenario.node[94].veinsmobility 	totalCO2Emission 	198.90443079826
scalar MyScenario.node[11].appl 	generatedWSMs 	1
scalar MyScenario.node[11].appl 	receivedWSMs 	13
scalar MyScenario.node[11].appl 	generatedBSMs 	0
scalar MyScenario.node[11].appl 	receivedBSMs 	0
scalar MyScenario.node[11].appl 	generatedWSAs 	0
scalar MyScenario.node[11].appl 	receivedWSAs 	0
scalar MyScenario.node[11].nic.phy80211p 	busyTime 	5.4375e-05
scalar MyScenario.node[11].nic.mac1609_4 	ReceivedUnicastPackets 	0
scalar MyScenario.node[11].nic.mac1609_4 	ReceivedBroadcasts 	13
scalar MyScenario.node[11].nic.mac1609_4 	SentPackets 	1
scalar MyScenario.node[11].nic.mac1609_4 	SNIRLostPackets 	2
scalar MyScenario.node[11].nic.mac1609_4 	RXTXLostPackets 	8
scalar MyScenario.node[11].nic.mac1609_4 	TotalLostPackets 	10
scalar MyScenario.node[11].nic.mac1609_4 	DroppedPacketsInMac 	0
scalar MyScenario.node[11].nic.mac1609_4 	TooLittleTime 	0
scalar MyScenario.node[11].nic.mac1609_4 	TimesIntoBackoff 	1
scalar MyScenario.node[11].nic.mac1609_4 	SlotsBackoff 	3
scalar MyScenario.node[11].nic.mac1609_4 	NumInternalContention 	0
scalar MyScenario.node[11].nic.mac1609_4 	totalBusyTime 	0.003481
scalar MyScenario.node[11].veinsmobility 	startTime 	1
scalar MyScenario.node[11].veinsmobility 	totalTime 	63
scalar MyScenario.node[11].veinsmobility 	stopTime 	65
scalar MyScenario.node[11].veinsmobility 	minSpeed 	1.5386003302643
scalar MyScenario.node[11].veinsmobility 	maxSpeed 	13.89580066232
scalar MyScenario.node[11].veinsmobility 	totalDistance 	776.88801644374
scalar MyScenario.node[11].veinsmobility 	totalCO2Emission 	170.89007552474
scalar MyScenario.node[85].appl 	generatedWSMs 	1
scalar MyScenario.node[85].appl 	receivedWSMs 	6
scalar MyScenario.node[85].appl 	generatedBSMs 	0
scalar MyScenario.node[85].appl 	receivedBSMs 	0
scalar MyScenario.node[85].appl 	generatedWSAs 	0
scalar MyScenario.node[85].appl 	receivedWSAs 	0
scalar MyScenario.node[85].nic.phy80211p 	busyTime 	4.35e-05
scalar MyScenario.node[85].nic.mac1609_4 	ReceivedUnicastPackets 	0
scalar MyScenario.node[85].nic.mac1609_4 	ReceivedBroadcasts 	6
scalar MyScenario.node[85].nic.mac1609_4 	SentPackets 	1
scalar MyScenario.node[85].nic.mac1609_4 	SNIRLostPackets 	6
scalar MyScenario.node[85].nic.mac1609_4 	RXTXLostPackets 	5
scalar MyScenario.node[85].nic.mac1609_4 	TotalLostPackets 	11
scalar MyScenario.node[85].nic.mac1609_4 	DroppedPacketsInMac 	0
scalar MyScenario.node[85].nic.mac1609_4 	TooLittleTime 	0
scalar MyScenario.node[85].nic.mac1609_4 	TimesIntoBackoff 	1
scalar MyScenario.node[85].nic.mac1609_4 	SlotsBackoff 	1
scalar MyScenario.node[85].nic.mac1609_4 	NumInternalContention 	0
scalar MyScenario.node[85].nic.mac1609_4 	totalBusyTime 	0.002321
scalar MyScenario.node[85].veinsmobility 	startTime 	1
scalar MyScenario.node[85].veinsmobility 	totalTime 	63
scalar MyScenario.node[85].veinsmobility 	stopTime 	65
scalar MyScenario.node[85].veinsmobility 	minSpeed 	2.0882746163988
scalar MyScenario.node[85].veinsmobility 	maxSpeed 	13.87415055898
scalar MyScenario.node[85].veinsmobility 	totalDistance 	773.10985496947
scalar MyScenario.node[85].veinsmobility 	totalCO2Emission 	171.3414059668
scalar MyScenario.node[35].appl 	generatedWSMs 	1
scalar MyScenario.node[35].appl 	receivedWSMs 	15
scalar MyScenario.node[35].appl 	generatedBSMs 	0
scalar MyScenario.node[35].appl 	receivedBSMs 	0
scalar MyScenario.node[35].appl 	generatedWSAs 	0
scalar MyScenario.node[35].appl 	receivedWSAs 	0
scalar MyScenario.node[35].nic.phy80211p 	busyTime 	0.00010193939393939
scalar MyScenario.node[35].nic.mac1609_4 	ReceivedUnicastPackets 	0
scalar MyScenario.node[35].nic.mac1609_4 	ReceivedBroadcasts 	15
scalar MyScenario.node[35].nic.mac1609_4 	SentPackets 	1
scalar MyScenario.node[35].nic.mac1609_4 	SNIRLostPackets 	14
scalar MyScenario.node[35].nic.mac1609_4 	RXTXLostPackets 	10
scalar MyScenario.node[35].nic.mac1609_4 	TotalLostPackets 	24
scalar MyScenario.node[35].nic.mac1609_4 	DroppedPacketsInMac 	0
scalar MyScenario.node[35].nic.mac1609_4 	TooLittleTime 	0
scalar MyScenario.node[35].nic.mac1609_4 	TimesIntoBackoff 	1
scalar MyScenario.node[35].nic.mac1609_4 	SlotsBackoff 	1
scalar MyScenario.node[35].nic.mac1609_4 	NumInternalContention 	0
scalar MyScenario.node[35].nic.mac1609_4 	totalBusyTime 	0.005337066628
scalar MyScenario.node[35].veinsmobility 	startTime 	1
scalar MyScenario.node[35].veinsmobility 	totalTime 	65
scalar MyScenario.node[35].veinsmobility 	stopTime 	67
scalar MyScenario.node[35].veinsmobility 	minSpeed 	1.5362542288844
scalar MyScenario.node[35].veinsmobility 	maxSpeed 	13.884922706755
scalar MyScenario.node[35].veinsmobility 	totalDistance 	768.36264575468
scalar MyScenario.node[35].veinsmobility 	totalCO2Emission 	196.08630859652
scalar MyScenario.node[65].appl 	generatedWSMs 	1
scalar MyScenario.node[65].appl 	receivedWSMs 	5
scalar MyScenario.node[65].appl 	generatedBSMs 	0
scalar MyScenario.node[65].appl 	receivedBSMs 	0
scalar MyScenario.node[65].appl 	generatedWSAs 	0
scalar MyScenario.node[65].appl 	receivedWSAs 	0
scalar MyScenario.node[65].nic.phy80211p 	busyTime 	5.4588235294118e-05
scalar MyScenario.node[65].nic.mac1609_4 	ReceivedUnicastPackets 	0
scalar MyScenario.node[65].nic.mac1609_4 	ReceivedBroadcasts 	5
scalar MyScenario.node[65].nic.mac1609_4 	SentPackets 	1
scalar MyScenario.node[65].nic.mac1609_4 	SNIRLostPackets 	11
scalar MyScenario.node[65].nic.mac1609_4 	RXTXLostPackets 	1
scalar MyScenario.node[65].nic.mac1609_4 	TotalLostPackets 	12
scalar MyScenario.node[65].nic.mac1609_4 	DroppedPacketsInMac 	0
scalar MyScenario.node[65].nic.mac1609_4 	TooLittleTime 	0
scalar MyScenario.node[65].nic.mac1609_4 	TimesIntoBackoff 	1
scalar MyScenario.node[65].nic.mac1609_4 	SlotsBackoff 	2
scalar MyScenario.node[65].nic.mac1609_4 	NumInternalContention 	0
scalar MyScenario.node[65].nic.mac1609_4 	totalBusyTime 	0.002089
scalar MyScenario.node[65].veinsmobility 	startTime 	1
scalar MyScenario.node[65].veinsmobility 	totalTime 	67
scalar MyScenario.node[65].veinsmobility 	stopTime 	69
scalar MyScenario.node[65].veinsmobility 	minSpeed 	0.014879209716666
scalar MyScenario.node[65].veinsmobility 	maxSpeed 	13.874526075087
scalar MyScenario.node[65].veinsmobility 	totalDistance 	670.34676978211
scalar MyScenario.node[65].veinsmobility 	totalCO2Emission 	203.07937395817
scalar MyScenario.node[8].appl 	generatedWSMs 	1
scalar MyScenario.node[8].appl 	receivedWSMs 	1
scalar MyScenario.node[8].appl 	generatedBSMs 	0
scalar MyScenario.node[8].appl 	receivedBSMs 	0
scalar MyScenario.node[8].appl 	generatedWSAs 	0
scalar MyScenario.node[8].appl 	receivedWSAs 	0
scalar MyScenario.node[8].nic.phy80211p 	busyTime 	6.7246376811594e-06
scalar MyScenario.node[8].nic.mac1609_4 	ReceivedUnicastPackets 	0
scalar MyScenario.node[8].nic.mac1609_4 	ReceivedBroadcasts 	1
scalar MyScenario.node[8].nic.mac1609_4 	SentPackets 	1
scalar MyScenario.node[8].nic.mac1609_4 	SNIRLostPackets 	1
scalar MyScenario.node[8].nic.mac1609_4 	RXTXLostPackets 	2
scalar MyScenario.node[8].nic.mac1609_4 	TotalLostPackets 	3
scalar MyScenario.node[8].nic.mac1609_4 	DroppedPacketsInMac 	0
scalar MyScenario.node[8].nic.mac1609_4 	TooLittleTime 	0
scalar MyScenario.node[8].nic.mac1609_4 	TimesIntoBackoff 	1
scalar MyScenario.node[8].nic.mac1609_4 	SlotsBackoff 	1
scalar MyScenario.node[8].nic.mac1609_4 	NumInternalContention 	0
scalar MyScenario.node[8].nic.mac1609_4 	totalBusyTime 	0.000697
scalar MyScenario.node[8].veinsmobility 	startTime 	1
scalar MyScenario.node[8].veinsmobility 	totalTime 	68
scalar MyScenario.node[8].veinsmobility 	stopTime 	70
scalar MyScenario.node[8].veinsmobility 	minSpeed 	1.8152621814515
scalar MyScenario.node[8].veinsmobility 	maxSpeed 	13.845164238871
scalar MyScenario.node[8].veinsmobility 	totalDistance 	758.13509752784
scalar MyScenario.node[8].veinsmobility 	totalCO2Emission 	245.06078035711
scalar MyScenario.node[45].appl 	generatedWSMs 	1
scalar MyScenario.node[45].appl 	receivedWSMs 	2
scalar MyScenario.node[45].appl 	generatedBSMs 	0
scalar MyScenario.node[45].appl 	receivedBSMs 	0
scalar MyScenario.node[45].appl 	generatedWSAs 	0
scalar MyScenario.node[45].appl 	receivedWSAs 	0
scalar MyScenario.node[45].nic.phy80211p 	busyTime 	3.3623188405797e-05
scalar MyScenario.node[45].nic.mac1609_4 	ReceivedUnicastPackets 	0
scalar MyScenario.node[45].nic.mac1609_4 	ReceivedBroadcasts 	2
scalar MyScenario.node[45].nic.mac1609_4 	SentPackets 	1
scalar MyScenario.node[45].nic.mac1609_4 	SNIRLostPackets 	8
scalar MyScenario.node[45].nic.mac1609_4 	RXTXLostPackets 	9
scalar MyScenario.node[45].nic.mac1609_4 	TotalLostPackets 	17
scalar MyScenario.node[45].nic.mac1609_4 	DroppedPacketsInMac 	0
scalar MyScenario.node[45].nic.mac1609_4 	TooLittleTime 	0
scalar MyScenario.node[45].nic.mac1609_4 	TimesIntoBackoff 	1
scalar MyScenario.node[45].nic.mac1609_4 	SlotsBackoff 	3
scalar MyScenario.node[45].nic.mac1609_4 	NumInternalContention 	0
scalar MyScenario.node[45].nic.mac1609_4 	totalBusyTime 	0.001393
scalar MyScenario.node[45].veinsmobility 	startTime 	1
scalar MyScenario.node[45].veinsmobility 	totalTime 	68
scalar MyScenario.node[45].veinsmobility 	stopTime 	70
scalar MyScenario.node[45].veinsmobility 	minSpeed 	1.7205238553463
scalar MyScenario.node[45].veinsmobility 	maxSpeed 	13.897655962594
scalar MyScenario.node[45].veinsmobility 	totalDistance 	780.15301463075
scalar MyScenario.node[45].veinsmobility 	totalCO2Emission 	215.22580666688
scalar MyScenario.node[76].appl 	generatedWSMs 	1
scalar MyScenario.node[76].appl 	receivedWSMs 	2
scalar MyScenario.node[76].appl 	generatedBSMs 	0
scalar MyScenario.node[76].appl 	receivedBSMs 	0
scalar MyScenario.node[76].appl 	generatedWSAs 	0
scalar MyScenario.node[76].appl 	receivedWSAs 	0
scalar MyScenario.node[76].nic.phy80211p 	busyTime 	2.3536231884058e-05
scalar MyScenario.node[76].nic.mac1609_4 	ReceivedUnicastPackets 	0
scalar MyScenario.node[76].nic.mac1609_4 	ReceivedBroadcasts 	2
scalar MyScenario.node[76].nic.mac1609_4 	SentPackets 	1
scalar MyScenario.node[76].nic.mac1609_4 	SNIRLostPackets 	5
scalar MyScenario.node[76].nic.mac1609_4 	RXTXLostPackets 	2
scalar MyScenario.node[76].nic.mac1609_4 	TotalLostPackets 	7
scalar MyScenario.node[76].nic.mac1609_4 	DroppedPacketsInMac 	0
scalar MyScenario.node[76].nic.mac1609_4 	TooLittleTime 	0
scalar MyScenario.node[76].nic.mac1609_4 	TimesIntoBackoff 	1
scalar MyScenario.node[76].nic.mac1609_4 	SlotsBackoff 	2
scalar MyScenario.node[76].nic.mac1609_4 	NumInternalContention 	0
scalar MyScenario.node[76].nic.mac1609_4 	totalBusyTime 	0.001393
scalar MyScenario.node[76].veinsmobility 	startTime 	1
scalar MyScenario.node[76].veinsmobility 	totalTime 	68
scalar MyScenario.node[76].veinsmobility 	stopTime 	70
scalar MyScenario.node[76].veinsmobility 	minSpeed 	2.1428098361241
scalar MyScenario.node[76].veinsmobility 	maxSpeed 	13.838166966615
scalar MyScenario.node[76].veinsmobility 	totalDistance 	763.6427608342
scalar MyScenario.node[76].veinsmobility 	totalCO2Emission 	234.48289010712
scalar MyScenario.node[46].appl 	generatedWSMs 	1
scalar MyScenario.node[46].appl 	receivedWSMs 	7
scalar MyScenario.node[46].appl 	generatedBSMs 	0
scalar MyScenario.node[46].appl 	receivedBSMs 	0
scalar MyScenario.node[46].appl 	generatedWSAs 	0
scalar MyScenario.node[46].appl 	receivedWSAs 	0
scalar MyScenario.node[46].nic.phy80211p 	busyTime 	5.0434782608696e-05
scalar MyScenario.node[46].nic.mac1609_4 	ReceivedUnicastPackets 	0
scalar MyScenario.node[46].nic.mac1609_4 	ReceivedBroadcasts 	7
scalar MyScenario.node[46].nic.mac1609_4 	SentPackets 	1
scalar MyScenario.node[46].nic.mac1609_4 	SNIRLostPackets 	8
scalar MyScenario.node[46].nic.mac1609_4 	RXTXLostPackets 	0
scalar MyScenario.node[46].nic.mac1609_4 	TotalLostPackets 	8
scalar MyScenario.node[46].nic.mac1609_4 	DroppedPacketsInMac 	0
scalar MyScenario.node[46].nic.mac1609_4 	TooLittleTime 	0
scalar MyScenario.node[46].nic.mac1609_4 	TimesIntoBackoff 	1
scalar MyScenario.node[46].nic.mac1609_4 	SlotsBackoff 	3
scalar MyScenario.node[46].nic.mac1609_4 	NumInternalContention 	0
scalar MyScenario.node[46].nic.mac1609_4 	totalBusyTime 	0.00301705329
scalar MyScenario.node[46].veinsmobility 	startTime 	1
scalar MyScenario.node[46].veinsmobility 	totalTime 	68
scalar MyScenario.node[46].veinsmobility 	stopTime 	70
scalar MyScenario.node[46].veinsmobility 	minSpeed 	1.403414519441e-06
scalar MyScenario.node[46].veinsmobility 	maxSpeed 	13.862729497114
scalar MyScenario.node[46].veinsmobility 	totalDistance 	664.00625966594
scalar MyScenario.node[46].veinsmobility 	totalCO2Emission 	225.64355186913
scalar MyScenario.node[18].appl 	generatedWSMs 	1
scalar MyScenario.node[18].appl 	receivedWSMs 	1
scalar MyScenario.node[18].appl 	generatedBSMs 	0
scalar MyScenario.node[18].appl 	receivedBSMs 	0
scalar MyScenario.node[18].appl 	generatedWSAs 	0
scalar MyScenario.node[18].appl 	receivedWSAs 	0
scalar MyScenario.node[18].nic.phy80211p 	busyTime 	2.3536231884058e-05
scalar MyScenario.node[18].nic.mac1609_4 	ReceivedUnicastPackets 	0
scalar MyScenario.node[18].nic.mac1609_4 	ReceivedBroadcasts 	1
scalar MyScenario.node[18].nic.mac1609_4 	SentPackets 	1
scalar MyScenario.node[18].nic.mac1609_4 	SNIRLostPackets 	6
scalar MyScenario.node[18].nic.mac1609_4 	RXTXLostPackets 	5
scalar MyScenario.node[18].nic.mac1609_4 	TotalLostPackets 	11
scalar MyScenario.node[18].nic.mac1609_4 	DroppedPacketsInMac 	0
scalar MyScenario.node[18].nic.mac1609_4 	TooLittleTime 	0
scalar MyScenario.node[18].nic.mac1609_4 	TimesIntoBackoff 	1
scalar MyScenario.node[18].nic.mac1609_4 	SlotsBackoff 	2
scalar MyScenario.node[18].nic.mac1609_4 	NumInternalContention 	0
scalar MyScenario.node[18].nic.mac1609_4 	totalBusyTime 	0.001393
scalar MyScenario.node[18].veinsmobility 	startTime 	1
scalar MyScenario.node[18].veinsmobility 	totalTime 	68
scalar MyScenario.node[18].veinsmobility 	stopTime 	70
scalar MyScenario.node[18].veinsmobility 	minSpeed 	1.5586273399182
scalar MyScenario.node[18].veinsmobility 	maxSpeed 	13.827288310649
scalar MyScenario.node[18].veinsmobility 	totalDistance 	764.02767282364
scalar MyScenario.node[18].veinsmobility 	totalCO2Emission 	217.46930530147
scalar MyScenario.node[14].appl 	generatedWSMs 	1
scalar MyScenario.node[14].appl 	receivedWSMs 	3
scalar MyScenario.node[14].appl 	generatedBSMs 	0
scalar MyScenario.node[14].appl 	receivedBSMs 	0
scalar MyScenario.node[14].appl 	generatedWSAs 	0
scalar MyScenario.node[14].appl 	receivedWSAs 	0
scalar MyScenario.node[14].nic.phy80211p 	busyTime 	5.3797101449275e-05
scalar MyScenario.node[14].nic.mac1609_4 	ReceivedUnicastPackets 	0
scalar MyScenario.node[14].nic.mac1609_4 	ReceivedBroadcasts 	3
scalar MyScenario.node[14].nic.mac1609_4 	SentPackets 	1
scalar MyScenario.node[14].nic.mac1609_4 	SNIRLostPackets 	13
scalar MyScenario.node[14].nic.mac1609_4 	RXTXLostPackets 	4
scalar MyScenario.node[14].nic.mac1609_4 	TotalLostPackets 	17
scalar MyScenario.node[14].nic.mac1609_4 	DroppedPacketsInMac 	0
scalar MyScenario.node[14].nic.mac1609_4 	TooLittleTime 	0
scalar MyScenario.node[14].nic.mac1609_4 	TimesIntoBackoff 	1
scalar MyScenario.node[14].nic.mac1609_4 	SlotsBackoff 	2
scalar MyScenario.node[14].nic.mac1609_4 	NumInternalContention 	0
scalar MyScenario.node[14].nic.mac1609_4 	totalBusyTime 	0.002089
scalar MyScenario.node[14].veinsmobility 	startTime 	1
scalar MyScenario.node[14].veinsmobility 	totalTime 	68
scalar MyScenario.node[14].veinsmobility 	stopTime 	70
scalar MyScenario.node[14].veinsmobility 	minSpeed 	0.56793184726472
scalar MyScenario.node[14].veinsmobility 	maxSpeed 	13.883026466612
scalar MyScenario.node[14].veinsmobility 	totalDistance 	677.13808982781
scalar MyScenario.node[14].veinsmobility 	totalCO2Emission 	246.87390705323
scalar MyScenario.node[99].appl 	generatedWSMs 	0
scalar MyScenario.node[99].appl 	receivedWSMs 	0
scalar MyScenario.node[99].appl 	generatedBSMs 	0
scalar MyScenario.node[99].appl 	receivedBSMs 	0
scalar MyScenario.node[99].appl 	generatedWSAs 	0
scalar MyScenario.node[99].appl 	receivedWSAs 	0
scalar MyScenario.node[99].nic.phy80211p 	busyTime 	1.0545454545455e-05
scalar MyScenario.node[99].nic.mac1609_4 	ReceivedUnicastPackets 	0
scalar MyScenario.node[99].nic.mac1609_4 	ReceivedBroadcasts 	0
scalar MyScenario.node[99].nic.mac1609_4 	SentPackets 	0
scalar MyScenario.node[99].nic.mac1609_4 	SNIRLostPackets 	3
scalar MyScenario.node[99].nic.mac1609_4 	RXTXLostPackets 	0
scalar MyScenario.node[99].nic.mac1609_4 	TotalLostPackets 	3
scalar MyScenario.node[99].nic.mac1609_4 	DroppedPacketsInMac 	0
scalar MyScenario.node[99].nic.mac1609_4 	TooLittleTime 	0
scalar MyScenario.node[99].nic.mac1609_4 	TimesIntoBackoff 	0
scalar MyScenario.node[99].nic.mac1609_4 	SlotsBackoff 	0
scalar MyScenario.node[99].nic.mac1609_4 	NumInternalContention 	0
scalar MyScenario.node[99].nic.mac1609_4 	totalBusyTime 	0.000464
scalar MyScenario.node[99].veinsmobility 	startTime 	4
scalar MyScenario.node[99].veinsmobility 	totalTime 	65
scalar MyScenario.node[99].veinsmobility 	stopTime 	70
scalar MyScenario.node[99].veinsmobility 	minSpeed 	1.0783712066112
scalar MyScenario.node[99].veinsmobility 	maxSpeed 	13.867336046929
scalar MyScenario.node[99].veinsmobility 	totalDistance 	774.24724443163
scalar MyScenario.node[99].veinsmobility 	totalCO2Emission 	193.41850722641
scalar MyScenario.node[52].appl 	generatedWSMs 	1
scalar MyScenario.node[52].appl 	receivedWSMs 	12
scalar MyScenario.node[52].appl 	generatedBSMs 	0
scalar MyScenario.node[52].appl 	receivedBSMs 	0
scalar MyScenario.node[52].appl 	generatedWSAs 	0
scalar MyScenario.node[52].appl 	receivedWSAs 	0
scalar MyScenario.node[52].nic.phy80211p 	busyTime 	5.3797101449275e-05
scalar MyScenario.node[52].nic.mac1609_4 	ReceivedUnicastPackets 	0
scalar MyScenario.node[52].nic.mac1609_4 	ReceivedBroadcasts 	12
scalar MyScenario.node[52].nic.mac1609_4 	SentPackets 	1
scalar MyScenario.node[52].nic.mac1609_4 	SNIRLostPackets 	4
scalar MyScenario.node[52].nic.mac1609_4 	RXTXLostPackets 	4
scalar MyScenario.node[52].nic.mac1609_4 	TotalLostPackets 	8
scalar MyScenario.node[52].nic.mac1609_4 	DroppedPacketsInMac 	0
scalar MyScenario.node[52].nic.mac1609_4 	TooLittleTime 	0
scalar MyScenario.node[52].nic.mac1609_4 	TimesIntoBackoff 	1
scalar MyScenario.node[52].nic.mac1609_4 	SlotsBackoff 	0
scalar MyScenario.node[52].nic.mac1609_4 	NumInternalContention 	0
scalar MyScenario.node[52].nic.mac1609_4 	totalBusyTime 	0.003481084497
scalar MyScenario.node[52].veinsmobility 	startTime 	1
scalar MyScenario.node[52].veinsmobility 	totalTime 	68
scalar MyScenario.node[52].veinsmobility 	stopTime 	70
scalar MyScenario.node[52].veinsmobility 	minSpeed 	2.3624863617821
scalar MyScenario.node[52].veinsmobility 	maxSpeed 	13.896850462235
scalar MyScenario.node[52].veinsmobility 	totalDistance 	766.44783917235
scalar MyScenario.node[52].veinsmobility 	totalCO2Emission 	230.44524795278
scalar MyScenario.node[71].appl 	generatedWSMs 	1
scalar MyScenario.node[71].appl 	receivedWSMs 	13
scalar MyScenario.node[71].appl 	generatedBSMs 	0
scalar MyScenario.node[71].appl 	receivedBSMs 	0
scalar MyScenario.node[71].appl 	generatedWSAs 	0
scalar MyScenario.node[71].appl 	receivedWSAs 	0
scalar MyScenario.node[71].nic.phy80211p 	busyTime 	6.7246376811594e-05
scalar MyScenario.node[71].nic.mac1609_4 	ReceivedUnicastPackets 	0
scalar MyScenario.node[71].nic.mac1609_4 	ReceivedBroadcasts 	13
scalar MyScenario.node[71].nic.mac1609_4 	SentPackets 	1
scalar MyScenario.node[71].nic.mac1609_4 	SNIRLostPackets 	7
scalar MyScenario.node[71].nic.mac1609_4 	RXTXLostPackets 	9
scalar MyScenario.node[71].nic.mac1609_4 	TotalLostPackets 	16
scalar MyScenario.node[71].nic.mac1609_4 	DroppedPacketsInMac 	0
scalar MyScenario.node[71].nic.mac1609_4 	TooLittleTime 	0
scalar MyScenario.node[71].nic.mac1609_4 	TimesIntoBackoff 	1
scalar MyScenario.node[71].nic.mac1609_4 	SlotsBackoff 	2
scalar MyScenario.node[71].nic.mac1609_4 	NumInternalContention 	0
scalar MyScenario.node[71].nic.mac1609_4 	totalBusyTime 	0.004177008774
scalar MyScenario.node[71].veinsmobility 	startTime 	1
scalar MyScenario.node[71].veinsmobility 	totalTime 	68
scalar MyScenario.node[71].veinsmobility 	stopTime 	70
scalar MyScenario.node[71].veinsmobility 	minSpeed 	1.1454387492232
scalar MyScenario.node[71].veinsmobility 	maxSpeed 	13.887680008076
scalar MyScenario.node[71].veinsmobility 	totalDistance 	774.04271788783
scalar MyScenario.node[71].veinsmobility 	totalCO2Emission 	206.82636809111
scalar MyScenario.node[80].appl 	generatedWSMs 	1
scalar MyScenario.node[80].appl 	receivedWSMs 	1
scalar MyScenario.node[80].appl 	generatedBSMs 	0
scalar MyScenario.node[80].appl 	receivedBSMs 	0
scalar MyScenario.node[80].appl 	generatedWSAs 	0
scalar MyScenario.node[80].appl 	receivedWSAs 	0
scalar MyScenario.node[80].nic.phy80211p 	busyTime 	3.0260869565217e-05
scalar MyScenario.node[80].nic.mac1609_4 	ReceivedUnicastPackets 	0
scalar MyScenario.node[80].nic.mac1609_4 	ReceivedBroadcasts 	1
scalar MyScenario.node[80].nic.mac1609_4 	SentPackets 	1
scalar MyScenario.node[80].nic.mac1609_4 	SNIRLostPackets 	8
scalar MyScenario.node[80].nic.mac1609_4 	RXTXLostPackets 	3
scalar MyScenario.node[80].nic.mac1609_4 	TotalLostPackets 	11
scalar MyScenario.node[80].nic.mac1609_4 	DroppedPacketsInMac 	0
scalar MyScenario.node[80].nic.mac1609_4 	TooLittleTime 	0
scalar MyScenario.node[80].nic.mac1609_4 	TimesIntoBackoff 	1
scalar MyScenario.node[80].nic.mac1609_4 	SlotsBackoff 	1
scalar MyScenario.node[80].nic.mac1609_4 	NumInternalContention 	0
scalar MyScenario.node[80].nic.mac1609_4 	totalBusyTime 	0.000929
scalar MyScenario.node[80].veinsmobility 	startTime 	1
scalar MyScenario.node[80].veinsmobility 	totalTime 	68
scalar MyScenario.node[80].veinsmobility 	stopTime 	70
scalar MyScenario.node[80].veinsmobility 	minSpeed 	0.0013750434681938
scalar MyScenario.node[80].veinsmobility 	maxSpeed 	13.884770127665
scalar MyScenario.node[80].veinsmobility 	totalDistance 	753.90411139588
scalar MyScenario.node[80].veinsmobility 	totalCO2Emission 	208.73359889997
scalar MyScenario.node[63].appl 	generatedWSMs 	1
scalar MyScenario.node[63].appl 	receivedWSMs 	18
scalar MyScenario.node[63].appl 	generatedBSMs 	0
scalar MyScenario.node[63].appl 	receivedBSMs 	0
scalar MyScenario.node[63].appl 	generatedWSAs 	0
scalar MyScenario.node[63].appl 	receivedWSAs 	0
scalar MyScenario.node[63].nic.phy80211p 	busyTime 	9.28e-05
scalar MyScenario.node[63].nic.mac1609_4 	ReceivedUnicastPackets 	0
scalar MyScenario.node[63].nic.mac1609_4 	ReceivedBroadcasts 	18
scalar MyScenario.node[63].nic.mac1609_4 	SentPackets 	1
scalar MyScenario.node[63].nic.mac1609_4 	SNIRLostPackets 	10
scalar MyScenario.node[63].nic.mac1609_4 	RXTXLostPackets 	1
scalar MyScenario.node[63].nic.mac1609_4 	TotalLostPackets 	11
scalar MyScenario.node[63].nic.mac1609_4 	DroppedPacketsInMac 	0
scalar MyScenario.node[63].nic.mac1609_4 	TooLittleTime 	0
scalar MyScenario.node[63].nic.mac1609_4 	TimesIntoBackoff 	1
scalar MyScenario.node[63].nic.mac1609_4 	SlotsBackoff 	0
scalar MyScenario.node[63].nic.mac1609_4 	NumInternalContention 	0
scalar MyScenario.node[63].nic.mac1609_4 	totalBusyTime 	0.005337
scalar MyScenario.node[63].veinsmobility 	startTime 	1
scalar MyScenario.node[63].veinsmobility 	totalTime 	69
scalar MyScenario.node[63].veinsmobility 	stopTime 	71
scalar MyScenario.node[63].veinsmobility 	minSpeed 	1.1915210143906
scalar MyScenario.node[63].veinsmobility 	maxSpeed 	13.863520229422
scalar MyScenario.node[63].veinsmobility 	totalDistance 	781.2877839504
scalar MyScenario.node[63].veinsmobility 	totalCO2Emission 	215.32427976437
scalar MyScenario.node[26].appl 	generatedWSMs 	1
scalar MyScenario.node[26].appl 	receivedWSMs 	13
scalar MyScenario.node[26].appl 	generatedBSMs 	0
scalar MyScenario.node[26].appl 	receivedBSMs 	0
scalar MyScenario.node[26].appl 	generatedWSAs 	0
scalar MyScenario.node[26].appl 	receivedWSAs 	0
scalar MyScenario.node[26].nic.phy80211p 	busyTime 	8.4957746478873e-05
scalar MyScenario.node[26].nic.mac1609_4 	ReceivedUnicastPackets 	0
scalar MyScenario.node[26].nic.mac1609_4 	ReceivedBroadcasts 	13
scalar MyScenario.node[26].nic.mac1609_4 	SentPackets 	1
scalar MyScenario.node[26].nic.mac1609_4 	SNIRLostPackets 	13
scalar MyScenario.node[26].nic.mac1609_4 	RXTXLostPackets 	1
scalar MyScenario.node[26].nic.mac1609_4 	TotalLostPackets 	14
scalar MyScenario.node[26].nic.mac1609_4 	DroppedPacketsInMac 	0
scalar MyScenario.node[26].nic.mac1609_4 	TooLittleTime 	0
scalar MyScenario.node[26].nic.mac1609_4 	TimesIntoBackoff 	1
scalar MyScenario.node[26].nic.mac1609_4 	SlotsBackoff 	3
scalar MyScenario.node[26].nic.mac1609_4 	NumInternalContention 	0
[...]
scalar MyScenario.node[49].nic.mac1609_4 	SentPackets 	1
scalar MyScenario.node[49].nic.mac1609_4 	SNIRLostPackets 	9
scalar MyScenario.node[49].nic.mac1609_4 	RXTXLostPackets 	0
scalar MyScenario.node[49].nic.mac1609_4 	TotalLostPackets 	9
scalar MyScenario.node[49].nic.mac1609_4 	DroppedPacketsInMac 	0
scalar MyScenario.node[49].nic.mac1609_4 	TooLittleTime 	0
scalar MyScenario.node[49].nic.mac1609_4 	TimesIntoBackoff 	1
scalar MyScenario.node[49].nic.mac1609_4 	SlotsBackoff 	0
scalar MyScenario.node[49].nic.mac1609_4 	NumInternalContention 	0
scalar MyScenario.node[49].nic.mac1609_4 	totalBusyTime 	0.000929
scalar MyScenario.node[49].veinsmobility 	startTime 	1
scalar MyScenario.node[49].veinsmobility 	totalTime 	110
scalar MyScenario.node[49].veinsmobility 	stopTime 	112
scalar MyScenario.node[49].veinsmobility 	minSpeed 	0.092607611956626
scalar MyScenario.node[49].veinsmobility 	maxSpeed 	13.867038386432
scalar MyScenario.node[49].veinsmobility 	totalDistance 	1176.0348083555
scalar MyScenario.node[49].veinsmobility 	totalCO2Emission 	383.08388288711
scalar MyScenario.node[64].appl 	generatedWSMs 	1
scalar MyScenario.node[64].appl 	receivedWSMs 	36
scalar MyScenario.node[64].appl 	generatedBSMs 	0
scalar MyScenario.node[64].appl 	receivedBSMs 	0
scalar MyScenario.node[64].appl 	generatedWSAs 	0
scalar MyScenario.node[64].appl 	receivedWSAs 	0
scalar MyScenario.node[64].nic.phy80211p 	busyTime 	9.8234234234234e-05
scalar MyScenario.node[64].nic.mac1609_4 	ReceivedUnicastPackets 	0
scalar MyScenario.node[64].nic.mac1609_4 	ReceivedBroadcasts 	36
scalar MyScenario.node[64].nic.mac1609_4 	SentPackets 	1
scalar MyScenario.node[64].nic.mac1609_4 	SNIRLostPackets 	11
scalar MyScenario.node[64].nic.mac1609_4 	RXTXLostPackets 	11
scalar MyScenario.node[64].nic.mac1609_4 	TotalLostPackets 	22
scalar MyScenario.node[64].nic.mac1609_4 	DroppedPacketsInMac 	0
scalar MyScenario.node[64].nic.mac1609_4 	TooLittleTime 	0
scalar MyScenario.node[64].nic.mac1609_4 	TimesIntoBackoff 	1
scalar MyScenario.node[64].nic.mac1609_4 	SlotsBackoff 	0
scalar MyScenario.node[64].nic.mac1609_4 	NumInternalContention 	0
scalar MyScenario.node[64].nic.mac1609_4 	totalBusyTime 	0.009745
scalar MyScenario.node[64].veinsmobility 	startTime 	1
scalar MyScenario.node[64].veinsmobility 	totalTime 	110
scalar MyScenario.node[64].veinsmobility 	stopTime 	112
scalar MyScenario.node[64].veinsmobility 	minSpeed 	2.0509439486312
scalar MyScenario.node[64].veinsmobility 	maxSpeed 	13.890564668295
scalar MyScenario.node[64].veinsmobility 	totalDistance 	1272.8924381423
scalar MyScenario.node[64].veinsmobility 	totalCO2Emission 	381.05340311769
scalar MyScenario.node[42].appl 	generatedWSMs 	1
scalar MyScenario.node[42].appl 	receivedWSMs 	1
scalar MyScenario.node[42].appl 	generatedBSMs 	0
scalar MyScenario.node[42].appl 	receivedBSMs 	0
scalar MyScenario.node[42].appl 	generatedWSAs 	0
scalar MyScenario.node[42].appl 	receivedWSAs 	0
scalar MyScenario.node[42].nic.phy80211p 	busyTime 	8.3603603603604e-06
scalar MyScenario.node[42].nic.mac1609_4 	ReceivedUnicastPackets 	0
scalar MyScenario.node[42].nic.mac1609_4 	ReceivedBroadcasts 	1
scalar MyScenario.node[42].nic.mac1609_4 	SentPackets 	1
scalar MyScenario.node[42].nic.mac1609_4 	SNIRLostPackets 	3
scalar MyScenario.node[42].nic.mac1609_4 	RXTXLostPackets 	4
scalar MyScenario.node[42].nic.mac1609_4 	TotalLostPackets 	7
scalar MyScenario.node[42].nic.mac1609_4 	DroppedPacketsInMac 	0
scalar MyScenario.node[42].nic.mac1609_4 	TooLittleTime 	0
scalar MyScenario.node[42].nic.mac1609_4 	TimesIntoBackoff 	1
scalar MyScenario.node[42].nic.mac1609_4 	SlotsBackoff 	2
scalar MyScenario.node[42].nic.mac1609_4 	NumInternalContention 	0
scalar MyScenario.node[42].nic.mac1609_4 	totalBusyTime 	0.000697
scalar MyScenario.node[42].veinsmobility 	startTime 	1
scalar MyScenario.node[42].veinsmobility 	totalTime 	110
scalar MyScenario.node[42].veinsmobility 	stopTime 	112
scalar MyScenario.node[42].veinsmobility 	minSpeed 	0.17882498524644
scalar MyScenario.node[42].veinsmobility 	maxSpeed 	13.86355839856
scalar MyScenario.node[42].veinsmobility 	totalDistance 	1166.6350045998
scalar MyScenario.node[42].veinsmobility 	totalCO2Emission 	381.99361547273
scalar MyScenario.node[74].appl 	generatedWSMs 	1
scalar MyScenario.node[74].appl 	receivedWSMs 	21
scalar MyScenario.node[74].appl 	generatedBSMs 	0
scalar MyScenario.node[74].appl 	receivedBSMs 	0
scalar MyScenario.node[74].appl 	generatedWSAs 	0
scalar MyScenario.node[74].appl 	receivedWSAs 	0
scalar MyScenario.node[74].nic.phy80211p 	busyTime 	6.4214285714286e-05
scalar MyScenario.node[74].nic.mac1609_4 	ReceivedUnicastPackets 	0
scalar MyScenario.node[74].nic.mac1609_4 	ReceivedBroadcasts 	21
scalar MyScenario.node[74].nic.mac1609_4 	SentPackets 	1
scalar MyScenario.node[74].nic.mac1609_4 	SNIRLostPackets 	10
scalar MyScenario.node[74].nic.mac1609_4 	RXTXLostPackets 	3
scalar MyScenario.node[74].nic.mac1609_4 	TotalLostPackets 	13
scalar MyScenario.node[74].nic.mac1609_4 	DroppedPacketsInMac 	0
scalar MyScenario.node[74].nic.mac1609_4 	TooLittleTime 	0
scalar MyScenario.node[74].nic.mac1609_4 	TimesIntoBackoff 	1
scalar MyScenario.node[74].nic.mac1609_4 	SlotsBackoff 	0
scalar MyScenario.node[74].nic.mac1609_4 	NumInternalContention 	0
scalar MyScenario.node[74].nic.mac1609_4 	totalBusyTime 	0.006265
scalar MyScenario.node[74].veinsmobility 	startTime 	1
scalar MyScenario.node[74].veinsmobility 	totalTime 	111
scalar MyScenario.node[74].veinsmobility 	stopTime 	113
scalar MyScenario.node[74].veinsmobility 	minSpeed 	0.04288327320099
scalar MyScenario.node[74].veinsmobility 	maxSpeed 	13.840239052242
scalar MyScenario.node[74].veinsmobility 	totalDistance 	1169.1923129807
scalar MyScenario.node[74].veinsmobility 	totalCO2Emission 	353.79873436425
scalar MyScenario.node[16].appl 	generatedWSMs 	1
scalar MyScenario.node[16].appl 	receivedWSMs 	6
scalar MyScenario.node[16].appl 	generatedBSMs 	0
scalar MyScenario.node[16].appl 	receivedBSMs 	0
scalar MyScenario.node[16].appl 	generatedWSAs 	0
scalar MyScenario.node[16].appl 	receivedWSAs 	0
scalar MyScenario.node[16].nic.phy80211p 	busyTime 	2.6928571428571e-05
scalar MyScenario.node[16].nic.mac1609_4 	ReceivedUnicastPackets 	0
scalar MyScenario.node[16].nic.mac1609_4 	ReceivedBroadcasts 	6
scalar MyScenario.node[16].nic.mac1609_4 	SentPackets 	1
scalar MyScenario.node[16].nic.mac1609_4 	SNIRLostPackets 	7
scalar MyScenario.node[16].nic.mac1609_4 	RXTXLostPackets 	9
scalar MyScenario.node[16].nic.mac1609_4 	TotalLostPackets 	16
scalar MyScenario.node[16].nic.mac1609_4 	DroppedPacketsInMac 	0
scalar MyScenario.node[16].nic.mac1609_4 	TooLittleTime 	0
scalar MyScenario.node[16].nic.mac1609_4 	TimesIntoBackoff 	1
scalar MyScenario.node[16].nic.mac1609_4 	SlotsBackoff 	1
scalar MyScenario.node[16].nic.mac1609_4 	NumInternalContention 	0
scalar MyScenario.node[16].nic.mac1609_4 	totalBusyTime 	0.002321013924
scalar MyScenario.node[16].veinsmobility 	startTime 	1
scalar MyScenario.node[16].veinsmobility 	totalTime 	111
scalar MyScenario.node[16].veinsmobility 	stopTime 	113
scalar MyScenario.node[16].veinsmobility 	minSpeed 	1.8043566671899
scalar MyScenario.node[16].veinsmobility 	maxSpeed 	13.871732533001
scalar MyScenario.node[16].veinsmobility 	totalDistance 	1264.7978626813
scalar MyScenario.node[16].veinsmobility 	totalCO2Emission 	353.96070872587
scalar MyScenario.node[77].appl 	generatedWSMs 	1
scalar MyScenario.node[77].appl 	receivedWSMs 	1
scalar MyScenario.node[77].appl 	generatedBSMs 	0
scalar MyScenario.node[77].appl 	receivedBSMs 	0
scalar MyScenario.node[77].appl 	generatedWSAs 	0
scalar MyScenario.node[77].appl 	receivedWSAs 	0
scalar MyScenario.node[77].nic.phy80211p 	busyTime 	1.2428571428571e-05
scalar MyScenario.node[77].nic.mac1609_4 	ReceivedUnicastPackets 	0
scalar MyScenario.node[77].nic.mac1609_4 	ReceivedBroadcasts 	1
scalar MyScenario.node[77].nic.mac1609_4 	SentPackets 	1
scalar MyScenario.node[77].nic.mac1609_4 	SNIRLostPackets 	5
scalar MyScenario.node[77].nic.mac1609_4 	RXTXLostPackets 	3
scalar MyScenario.node[77].nic.mac1609_4 	TotalLostPackets 	8
scalar MyScenario.node[77].nic.mac1609_4 	DroppedPacketsInMac 	0
scalar MyScenario.node[77].nic.mac1609_4 	TooLittleTime 	0
scalar MyScenario.node[77].nic.mac1609_4 	TimesIntoBackoff 	1
scalar MyScenario.node[77].nic.mac1609_4 	SlotsBackoff 	3
scalar MyScenario.node[77].nic.mac1609_4 	NumInternalContention 	0
scalar MyScenario.node[77].nic.mac1609_4 	totalBusyTime 	0.000697
scalar MyScenario.node[77].veinsmobility 	startTime 	1
scalar MyScenario.node[77].veinsmobility 	totalTime 	111
scalar MyScenario.node[77].veinsmobility 	stopTime 	113
scalar MyScenario.node[77].veinsmobility 	minSpeed 	2.0377812872641
scalar MyScenario.node[77].veinsmobility 	maxSpeed 	13.899853932159
scalar MyScenario.node[77].veinsmobility 	totalDistance 	1281.3514460227
scalar MyScenario.node[77].veinsmobility 	totalCO2Emission 	344.31580680997
scalar MyScenario.node[0].appl 	generatedWSMs 	39
scalar MyScenario.node[0].appl 	receivedWSMs 	7
scalar MyScenario.node[0].appl 	generatedBSMs 	0
scalar MyScenario.node[0].appl 	receivedBSMs 	0
scalar MyScenario.node[0].appl 	generatedWSAs 	0
scalar MyScenario.node[0].appl 	receivedWSAs 	0
scalar MyScenario.node[0].nic.phy80211p 	busyTime 	4.4382608695652e-05
scalar MyScenario.node[0].nic.mac1609_4 	ReceivedUnicastPackets 	0
scalar MyScenario.node[0].nic.mac1609_4 	ReceivedBroadcasts 	7
scalar MyScenario.node[0].nic.mac1609_4 	SentPackets 	39
scalar MyScenario.node[0].nic.mac1609_4 	SNIRLostPackets 	15
scalar MyScenario.node[0].nic.mac1609_4 	RXTXLostPackets 	0
scalar MyScenario.node[0].nic.mac1609_4 	TotalLostPackets 	15
scalar MyScenario.node[0].nic.mac1609_4 	DroppedPacketsInMac 	0
scalar MyScenario.node[0].nic.mac1609_4 	TooLittleTime 	0
scalar MyScenario.node[0].nic.mac1609_4 	TimesIntoBackoff 	39
scalar MyScenario.node[0].nic.mac1609_4 	SlotsBackoff 	65
scalar MyScenario.node[0].nic.mac1609_4 	NumInternalContention 	0
scalar MyScenario.node[0].nic.mac1609_4 	totalBusyTime 	0.011407498712
scalar MyScenario.node[0].veinsmobility 	startTime 	1
scalar MyScenario.node[0].veinsmobility 	totalTime 	114
scalar MyScenario.node[0].veinsmobility 	stopTime 	116
scalar MyScenario.node[0].veinsmobility 	minSpeed 	2.076519417786
scalar MyScenario.node[0].veinsmobility 	maxSpeed 	13.895788224298
scalar MyScenario.node[0].veinsmobility 	totalDistance 	1268.4418912064
scalar MyScenario.node[0].veinsmobility 	totalCO2Emission 	401.16730826066
scalar MyScenario.node[27].appl 	generatedWSMs 	0
scalar MyScenario.node[27].appl 	receivedWSMs 	0
scalar MyScenario.node[27].appl 	generatedBSMs 	0
scalar MyScenario.node[27].appl 	receivedBSMs 	0
scalar MyScenario.node[27].appl 	generatedWSAs 	0
scalar MyScenario.node[27].appl 	receivedWSAs 	0
scalar MyScenario.node[27].nic.phy80211p 	busyTime 	5.7049180327869e-06
scalar MyScenario.node[27].nic.mac1609_4 	ReceivedUnicastPackets 	0
scalar MyScenario.node[27].nic.mac1609_4 	ReceivedBroadcasts 	0
scalar MyScenario.node[27].nic.mac1609_4 	SentPackets 	0
scalar MyScenario.node[27].nic.mac1609_4 	SNIRLostPackets 	3
scalar MyScenario.node[27].nic.mac1609_4 	RXTXLostPackets 	0
scalar MyScenario.node[27].nic.mac1609_4 	TotalLostPackets 	3
scalar MyScenario.node[27].nic.mac1609_4 	DroppedPacketsInMac 	0
scalar MyScenario.node[27].nic.mac1609_4 	TooLittleTime 	0
scalar MyScenario.node[27].nic.mac1609_4 	TimesIntoBackoff 	0
scalar MyScenario.node[27].nic.mac1609_4 	SlotsBackoff 	0
scalar MyScenario.node[27].nic.mac1609_4 	NumInternalContention 	0
scalar MyScenario.node[27].nic.mac1609_4 	totalBusyTime 	0.000232
scalar MyScenario.node[27].veinsmobility 	startTime 	1
scalar MyScenario.node[27].veinsmobility 	totalTime 	121
scalar MyScenario.node[27].veinsmobility 	stopTime 	123
scalar MyScenario.node[27].veinsmobility 	minSpeed 	0.049608673951683
scalar MyScenario.node[27].veinsmobility 	maxSpeed 	13.828209986794
scalar MyScenario.node[27].veinsmobility 	totalDistance 	1272.6568749644
scalar MyScenario.node[27].veinsmobility 	totalCO2Emission 	422.88395526337
scalar MyScenario.node[91].appl 	generatedWSMs 	1
scalar MyScenario.node[91].appl 	receivedWSMs 	18
scalar MyScenario.node[91].appl 	generatedBSMs 	0
scalar MyScenario.node[91].appl 	receivedBSMs 	0
scalar MyScenario.node[91].appl 	generatedWSAs 	0
scalar MyScenario.node[91].appl 	receivedWSAs 	0
scalar MyScenario.node[91].nic.phy80211p 	busyTime 	4.0264462809917e-05
scalar MyScenario.node[91].nic.mac1609_4 	ReceivedUnicastPackets 	0
scalar MyScenario.node[91].nic.mac1609_4 	ReceivedBroadcasts 	18
scalar MyScenario.node[91].nic.mac1609_4 	SentPackets 	1
scalar MyScenario.node[91].nic.mac1609_4 	SNIRLostPackets 	3
scalar MyScenario.node[91].nic.mac1609_4 	RXTXLostPackets 	10
scalar MyScenario.node[91].nic.mac1609_4 	TotalLostPackets 	13
scalar MyScenario.node[91].nic.mac1609_4 	DroppedPacketsInMac 	0
scalar MyScenario.node[91].nic.mac1609_4 	TooLittleTime 	0
scalar MyScenario.node[91].nic.mac1609_4 	TimesIntoBackoff 	1
scalar MyScenario.node[91].nic.mac1609_4 	SlotsBackoff 	0
scalar MyScenario.node[91].nic.mac1609_4 	NumInternalContention 	0
scalar MyScenario.node[91].nic.mac1609_4 	totalBusyTime 	0.004873072556
scalar MyScenario.node[91].veinsmobility 	startTime 	4
scalar MyScenario.node[91].veinsmobility 	totalTime 	120
scalar MyScenario.node[91].veinsmobility 	stopTime 	125
scalar MyScenario.node[91].veinsmobility 	minSpeed 	0.024769490890231
scalar MyScenario.node[91].veinsmobility 	maxSpeed 	13.8867456557
scalar MyScenario.node[91].veinsmobility 	totalDistance 	1172.0163472895
scalar MyScenario.node[91].veinsmobility 	totalCO2Emission 	397.50575840876
scalar MyScenario.node[22].appl 	generatedWSMs 	0
scalar MyScenario.node[22].appl 	receivedWSMs 	0
scalar MyScenario.node[22].appl 	generatedBSMs 	0
scalar MyScenario.node[22].appl 	receivedBSMs 	0
scalar MyScenario.node[22].appl 	generatedWSAs 	0
scalar MyScenario.node[22].appl 	receivedWSAs 	0
scalar MyScenario.node[22].nic.phy80211p 	busyTime 	5.4803149606299e-06
scalar MyScenario.node[22].nic.mac1609_4 	ReceivedUnicastPackets 	0
scalar MyScenario.node[22].nic.mac1609_4 	ReceivedBroadcasts 	0
scalar MyScenario.node[22].nic.mac1609_4 	SentPackets 	0
scalar MyScenario.node[22].nic.mac1609_4 	SNIRLostPackets 	3
scalar MyScenario.node[22].nic.mac1609_4 	RXTXLostPackets 	0
scalar MyScenario.node[22].nic.mac1609_4 	TotalLostPackets 	3
scalar MyScenario.node[22].nic.mac1609_4 	DroppedPacketsInMac 	0
scalar MyScenario.node[22].nic.mac1609_4 	TooLittleTime 	0
scalar MyScenario.node[22].nic.mac1609_4 	TimesIntoBackoff 	0
scalar MyScenario.node[22].nic.mac1609_4 	SlotsBackoff 	0
scalar MyScenario.node[22].nic.mac1609_4 	NumInternalContention 	0
scalar MyScenario.node[22].nic.mac1609_4 	totalBusyTime 	0.000232
scalar MyScenario.node[22].veinsmobility 	startTime 	1
scalar MyScenario.node[22].veinsmobility 	totalTime 	126
scalar MyScenario.node[22].veinsmobility 	stopTime 	128
scalar MyScenario.node[22].veinsmobility 	minSpeed 	1.5727756957291
scalar MyScenario.node[22].veinsmobility 	maxSpeed 	13.897008594894
scalar MyScenario.node[22].veinsmobility 	totalDistance 	1464.8391517358
scalar MyScenario.node[22].veinsmobility 	totalCO2Emission 	397.82082360364
scalar MyScenario.node[47].appl 	generatedWSMs 	1
scalar MyScenario.node[47].appl 	receivedWSMs 	7
scalar MyScenario.node[47].appl 	generatedBSMs 	0
scalar MyScenario.node[47].appl 	receivedBSMs 	0
scalar MyScenario.node[47].appl 	generatedWSAs 	0
scalar MyScenario.node[47].appl 	receivedWSAs 	0
scalar MyScenario.node[47].nic.phy80211p 	busyTime 	2.8335877862595e-05
scalar MyScenario.node[47].nic.mac1609_4 	ReceivedUnicastPackets 	0
scalar MyScenario.node[47].nic.mac1609_4 	ReceivedBroadcasts 	7
scalar MyScenario.node[47].nic.mac1609_4 	SentPackets 	1
scalar MyScenario.node[47].nic.mac1609_4 	SNIRLostPackets 	9
scalar MyScenario.node[47].nic.mac1609_4 	RXTXLostPackets 	0
scalar MyScenario.node[47].nic.mac1609_4 	TotalLostPackets 	9
scalar MyScenario.node[47].nic.mac1609_4 	DroppedPacketsInMac 	0
scalar MyScenario.node[47].nic.mac1609_4 	TooLittleTime 	0
scalar MyScenario.node[47].nic.mac1609_4 	TimesIntoBackoff 	1
scalar MyScenario.node[47].nic.mac1609_4 	SlotsBackoff 	2
scalar MyScenario.node[47].nic.mac1609_4 	NumInternalContention 	0
scalar MyScenario.node[47].nic.mac1609_4 	totalBusyTime 	0.002785
scalar MyScenario.node[47].veinsmobility 	startTime 	1
scalar MyScenario.node[47].veinsmobility 	totalTime 	130
scalar MyScenario.node[47].veinsmobility 	stopTime 	132
scalar MyScenario.node[47].veinsmobility 	minSpeed 	2.5571792275878
scalar MyScenario.node[47].veinsmobility 	maxSpeed 	13.897146794875
scalar MyScenario.node[47].veinsmobility 	totalDistance 	1467.5800052241
scalar MyScenario.node[47].veinsmobility 	totalCO2Emission 	440.33434040327
scalar MyScenario.node[92].appl 	generatedWSMs 	1
scalar MyScenario.node[92].appl 	receivedWSMs 	7
scalar MyScenario.node[92].appl 	generatedBSMs 	0
scalar MyScenario.node[92].appl 	receivedBSMs 	0
scalar MyScenario.node[92].appl 	generatedWSAs 	0
scalar MyScenario.node[92].appl 	receivedWSAs 	0
scalar MyScenario.node[92].nic.phy80211p 	busyTime 	3.9875e-05
scalar MyScenario.node[92].nic.mac1609_4 	ReceivedUnicastPackets 	0
scalar MyScenario.node[92].nic.mac1609_4 	ReceivedBroadcasts 	7
scalar MyScenario.node[92].nic.mac1609_4 	SentPackets 	1
scalar MyScenario.node[92].nic.mac1609_4 	SNIRLostPackets 	15
scalar MyScenario.node[92].nic.mac1609_4 	RXTXLostPackets 	0
scalar MyScenario.node[92].nic.mac1609_4 	TotalLostPackets 	15
scalar MyScenario.node[92].nic.mac1609_4 	DroppedPacketsInMac 	0
scalar MyScenario.node[92].nic.mac1609_4 	TooLittleTime 	0
scalar MyScenario.node[92].nic.mac1609_4 	TimesIntoBackoff 	1
scalar MyScenario.node[92].nic.mac1609_4 	SlotsBackoff 	2
scalar MyScenario.node[92].nic.mac1609_4 	NumInternalContention 	0
scalar MyScenario.node[92].nic.mac1609_4 	totalBusyTime 	0.002553
scalar MyScenario.node[92].veinsmobility 	startTime 	4
scalar MyScenario.node[92].veinsmobility 	totalTime 	127
scalar MyScenario.node[92].veinsmobility 	stopTime 	132
scalar MyScenario.node[92].veinsmobility 	minSpeed 	1.8744192511542
scalar MyScenario.node[92].veinsmobility 	maxSpeed 	13.899858403648
scalar MyScenario.node[92].veinsmobility 	totalDistance 	1476.2472920162
scalar MyScenario.node[92].veinsmobility 	totalCO2Emission 	420.68162422616
scalar MyScenario.node[87].appl 	generatedWSMs 	1
scalar MyScenario.node[87].appl 	receivedWSMs 	1
scalar MyScenario.node[87].appl 	generatedBSMs 	0
scalar MyScenario.node[87].appl 	receivedBSMs 	0
scalar MyScenario.node[87].appl 	generatedWSAs 	0
scalar MyScenario.node[87].appl 	receivedWSAs 	0
scalar MyScenario.node[87].nic.phy80211p 	busyTime 	3.437037037037e-06
scalar MyScenario.node[87].nic.mac1609_4 	ReceivedUnicastPackets 	0
scalar MyScenario.node[87].nic.mac1609_4 	ReceivedBroadcasts 	1
scalar MyScenario.node[87].nic.mac1609_4 	SentPackets 	1
scalar MyScenario.node[87].nic.mac1609_4 	SNIRLostPackets 	1
scalar MyScenario.node[87].nic.mac1609_4 	RXTXLostPackets 	9
scalar MyScenario.node[87].nic.mac1609_4 	TotalLostPackets 	10
scalar MyScenario.node[87].nic.mac1609_4 	DroppedPacketsInMac 	0
scalar MyScenario.node[87].nic.mac1609_4 	TooLittleTime 	0
scalar MyScenario.node[87].nic.mac1609_4 	TimesIntoBackoff 	1
scalar MyScenario.node[87].nic.mac1609_4 	SlotsBackoff 	2
scalar MyScenario.node[87].nic.mac1609_4 	NumInternalContention 	0
scalar MyScenario.node[87].nic.mac1609_4 	totalBusyTime 	0.000697111969
scalar MyScenario.node[87].veinsmobility 	startTime 	1
scalar MyScenario.node[87].veinsmobility 	totalTime 	134
scalar MyScenario.node[87].veinsmobility 	stopTime 	136
scalar MyScenario.node[87].veinsmobility 	minSpeed 	0.036663793301046
scalar MyScenario.node[87].veinsmobility 	maxSpeed 	13.877635952714
scalar MyScenario.node[87].veinsmobility 	totalDistance 	1553.4836655726
scalar MyScenario.node[87].veinsmobility 	totalCO2Emission 	401.37859847569
