version 2
run General-24-20170829-17:42:10-8100
attr configname General
attr datetime 20170829-17:42:10
attr density 300
attr experiment General
attr inifile omnetpp.ini
attr iterationvars $density=300
attr iterationvars2 "$density=300, $repetition=4"
attr measurement $density=300
attr network com.liborio.pi.MyScenario
attr processid 8100
attr repetition 4
attr replication #4
attr resultdir results
attr runnumber 24
attr seedset 4
param **.coreDebug false
param **.debug false
param *.**.nic.mac1609_4.bitrate 6Mbps
param *.**.nic.mac1609_4.txPower 20mW
param *.**.nic.mac1609_4.useServiceChannel true
param *.**.nic.phy80211p.analogueModels "xmldoc(\"config.xml\")"
param *.**.nic.phy80211p.antenna "xmldoc(\"antenna.xml\", \"/root/Antenna[@id='monopole']\")"
param *.**.nic.phy80211p.decider "xmldoc(\"config.xml\")"
param *.**.nic.phy80211p.sensitivity -84.39dBm
param *.**.nic.phy80211p.thermalNoise -110dBm
param *.**.nic.phy80211p.usePropagationDelay true
param *.**.nic.phy80211p.useThermalNoise true
param *.annotations.draw true
param *.connectionManager.drawMaxIntfDist false
param *.connectionManager.maxInterfDist 2600m
param *.connectionManager.sendDirect true
param *.manager.autoShutdown true
param *.manager.host "\"localhost\""
param *.manager.launchConfig "xmldoc(string(${density = 100, 200, 300, 400})+\"_\"+ string(${repetition})+\".launchd.xml\")"
param *.manager.port 9999
param *.manager.updateInterval 1s
param *.node[*].appl.beaconInterval 1s
param *.node[*].appl.dataOnSch true
param *.node[*].appl.headerLength "80 bit"
param *.node[*].appl.isSource false
param *.node[*].appl.numMsgs 100
param *.node[*].appl.sendBeacons false
param *.node[*].appl.stopTrafficTime 130s
param *.node[*].appl.wsmInterval 3s
param *.node[*].applType "\"Flooding\""
param *.node[*].veinsmobility.x 0
param *.node[*].veinsmobility.y 0
param *.node[*].veinsmobility.z 1.895
param *.node[*].veinsmobilityType.debug true
param *.node[0].appl.isSource true
param *.playgroundSizeX 2500m
param *.playgroundSizeY 2500m
param *.playgroundSizeZ 50m

scalar . 	density 	300
scalar MyScenario.node[172].appl 	generatedWSMs 	1
scalar MyScenario.node[172].appl 	receivedWSMs 	1
scalar MyScenario.node[172].appl 	generatedBSMs 	0
scalar MyScenario.node[172].appl 	receivedBSMs 	0
scalar MyScenario.node[172].appl 	generatedWSAs 	0
scalar MyScenario.node[172].appl 	receivedWSAs 	0
scalar MyScenario.node[172].nic.phy80211p 	busyTime 	0.0001392
scalar MyScenario.node[172].nic.mac1609_4 	ReceivedUnicastPackets 	0
scalar MyScenario.node[172].nic.mac1609_4 	ReceivedBroadcasts 	1
scalar MyScenario.node[172].nic.mac1609_4 	SentPackets 	1
scalar MyScenario.node[172].nic.mac1609_4 	SNIRLostPackets 	5
scalar MyScenario.node[172].nic.mac1609_4 	RXTXLostPackets 	8
scalar MyScenario.node[172].nic.mac1609_4 	TotalLostPackets 	13
scalar MyScenario.node[172].nic.mac1609_4 	DroppedPacketsInMac 	0
scalar MyScenario.node[172].nic.mac1609_4 	TooLittleTime 	0
scalar MyScenario.node[172].nic.mac1609_4 	TimesIntoBackoff 	1
scalar MyScenario.node[172].nic.mac1609_4 	SlotsBackoff 	2
scalar MyScenario.node[172].nic.mac1609_4 	NumInternalContention 	0
scalar MyScenario.node[172].nic.mac1609_4 	totalBusyTime 	0.000697056149
scalar MyScenario.node[172].veinsmobility 	startTime 	1
scalar MyScenario.node[172].veinsmobility 	totalTime 	9
scalar MyScenario.node[172].veinsmobility 	stopTime 	11
scalar MyScenario.node[172].veinsmobility 	minSpeed 	2.1872653045459
scalar MyScenario.node[172].veinsmobility 	maxSpeed 	13.441419890663
scalar MyScenario.node[172].veinsmobility 	totalDistance 	83.22857299496
scalar MyScenario.node[172].veinsmobility 	totalCO2Emission 	37.8356454615
scalar MyScenario.node[122].appl 	generatedWSMs 	0
scalar MyScenario.node[122].appl 	receivedWSMs 	0
scalar MyScenario.node[122].appl 	generatedBSMs 	0
scalar MyScenario.node[122].appl 	receivedBSMs 	0
scalar MyScenario.node[122].appl 	generatedWSAs 	0
scalar MyScenario.node[122].appl 	receivedWSAs 	0
scalar MyScenario.node[122].nic.phy80211p 	busyTime 	4.64e-05
scalar MyScenario.node[122].nic.mac1609_4 	ReceivedUnicastPackets 	0
scalar MyScenario.node[122].nic.mac1609_4 	ReceivedBroadcasts 	0
scalar MyScenario.node[122].nic.mac1609_4 	SentPackets 	0
scalar MyScenario.node[122].nic.mac1609_4 	SNIRLostPackets 	2
scalar MyScenario.node[122].nic.mac1609_4 	RXTXLostPackets 	0
scalar MyScenario.node[122].nic.mac1609_4 	TotalLostPackets 	2
scalar MyScenario.node[122].nic.mac1609_4 	DroppedPacketsInMac 	0
scalar MyScenario.node[122].nic.mac1609_4 	TooLittleTime 	0
scalar MyScenario.node[122].nic.mac1609_4 	TimesIntoBackoff 	0
scalar MyScenario.node[122].nic.mac1609_4 	SlotsBackoff 	0
scalar MyScenario.node[122].nic.mac1609_4 	NumInternalContention 	0
scalar MyScenario.node[122].nic.mac1609_4 	totalBusyTime 	0.000232
scalar MyScenario.node[122].veinsmobility 	startTime 	1
scalar MyScenario.node[122].veinsmobility 	totalTime 	9
scalar MyScenario.node[122].veinsmobility 	stopTime 	11
scalar MyScenario.node[122].veinsmobility 	minSpeed 	2.3902587868273
scalar MyScenario.node[122].veinsmobility 	maxSpeed 	13.573135188012
scalar MyScenario.node[122].veinsmobility 	totalDistance 	84.77070683022
scalar MyScenario.node[122].veinsmobility 	totalCO2Emission 	37.818752787007
scalar MyScenario.node[36].appl 	generatedWSMs 	0
scalar MyScenario.node[36].appl 	receivedWSMs 	0
scalar MyScenario.node[36].appl 	generatedBSMs 	0
scalar MyScenario.node[36].appl 	receivedBSMs 	0
scalar MyScenario.node[36].appl 	generatedWSAs 	0
scalar MyScenario.node[36].appl 	receivedWSAs 	0
scalar MyScenario.node[36].nic.phy80211p 	busyTime 	0
scalar MyScenario.node[36].nic.mac1609_4 	ReceivedUnicastPackets 	0
scalar MyScenario.node[36].nic.mac1609_4 	ReceivedBroadcasts 	0
scalar MyScenario.node[36].nic.mac1609_4 	SentPackets 	0
scalar MyScenario.node[36].nic.mac1609_4 	SNIRLostPackets 	0
scalar MyScenario.node[36].nic.mac1609_4 	RXTXLostPackets 	0
scalar MyScenario.node[36].nic.mac1609_4 	TotalLostPackets 	0
scalar MyScenario.node[36].nic.mac1609_4 	DroppedPacketsInMac 	0
scalar MyScenario.node[36].nic.mac1609_4 	TooLittleTime 	0
scalar MyScenario.node[36].nic.mac1609_4 	TimesIntoBackoff 	0
scalar MyScenario.node[36].nic.mac1609_4 	SlotsBackoff 	0
scalar MyScenario.node[36].nic.mac1609_4 	NumInternalContention 	0
scalar MyScenario.node[36].nic.mac1609_4 	totalBusyTime 	0
scalar MyScenario.node[36].veinsmobility 	startTime 	1
scalar MyScenario.node[36].veinsmobility 	totalTime 	9
scalar MyScenario.node[36].veinsmobility 	stopTime 	11
scalar MyScenario.node[36].veinsmobility 	minSpeed 	2.2417165605817
scalar MyScenario.node[36].veinsmobility 	maxSpeed 	13.406713674706
scalar MyScenario.node[36].veinsmobility 	totalDistance 	81.296795148053
scalar MyScenario.node[36].veinsmobility 	totalCO2Emission 	37.182004755794
scalar MyScenario.node[35].appl 	generatedWSMs 	0
scalar MyScenario.node[35].appl 	receivedWSMs 	0
scalar MyScenario.node[35].appl 	generatedBSMs 	0
scalar MyScenario.node[35].appl 	receivedBSMs 	0
scalar MyScenario.node[35].appl 	generatedWSAs 	0
scalar MyScenario.node[35].appl 	receivedWSAs 	0
scalar MyScenario.node[35].nic.phy80211p 	busyTime 	0.00029527272727273
scalar MyScenario.node[35].nic.mac1609_4 	ReceivedUnicastPackets 	0
scalar MyScenario.node[35].nic.mac1609_4 	ReceivedBroadcasts 	0
scalar MyScenario.node[35].nic.mac1609_4 	SentPackets 	0
scalar MyScenario.node[35].nic.mac1609_4 	SNIRLostPackets 	14
scalar MyScenario.node[35].nic.mac1609_4 	RXTXLostPackets 	0
scalar MyScenario.node[35].nic.mac1609_4 	TotalLostPackets 	14
scalar MyScenario.node[35].nic.mac1609_4 	DroppedPacketsInMac 	0
scalar MyScenario.node[35].nic.mac1609_4 	TooLittleTime 	0
scalar MyScenario.node[35].nic.mac1609_4 	TimesIntoBackoff 	0
scalar MyScenario.node[35].nic.mac1609_4 	SlotsBackoff 	0
scalar MyScenario.node[35].nic.mac1609_4 	NumInternalContention 	0
scalar MyScenario.node[35].nic.mac1609_4 	totalBusyTime 	0.000696
scalar MyScenario.node[35].veinsmobility 	startTime 	1
scalar MyScenario.node[35].veinsmobility 	totalTime 	10
scalar MyScenario.node[35].veinsmobility 	stopTime 	12
scalar MyScenario.node[35].veinsmobility 	minSpeed 	1.6906343355775
scalar MyScenario.node[35].veinsmobility 	maxSpeed 	13.084886880219
scalar MyScenario.node[35].veinsmobility 	totalDistance 	87.726961527475
scalar MyScenario.node[35].veinsmobility 	totalCO2Emission 	37.767231712286
scalar MyScenario.node[23].appl 	generatedWSMs 	0
scalar MyScenario.node[23].appl 	receivedWSMs 	0
scalar MyScenario.node[23].appl 	generatedBSMs 	0
scalar MyScenario.node[23].appl 	receivedBSMs 	0
scalar MyScenario.node[23].appl 	generatedWSAs 	0
scalar MyScenario.node[23].appl 	receivedWSAs 	0
scalar MyScenario.node[23].nic.phy80211p 	busyTime 	0
scalar MyScenario.node[23].nic.mac1609_4 	ReceivedUnicastPackets 	0
scalar MyScenario.node[23].nic.mac1609_4 	ReceivedBroadcasts 	0
scalar MyScenario.node[23].nic.mac1609_4 	SentPackets 	0
scalar MyScenario.node[23].nic.mac1609_4 	SNIRLostPackets 	0
scalar MyScenario.node[23].nic.mac1609_4 	RXTXLostPackets 	0
scalar MyScenario.node[23].nic.mac1609_4 	TotalLostPackets 	0
scalar MyScenario.node[23].nic.mac1609_4 	DroppedPacketsInMac 	0
scalar MyScenario.node[23].nic.mac1609_4 	TooLittleTime 	0
scalar MyScenario.node[23].nic.mac1609_4 	TimesIntoBackoff 	0
scalar MyScenario.node[23].nic.mac1609_4 	SlotsBackoff 	0
scalar MyScenario.node[23].nic.mac1609_4 	NumInternalContention 	0
scalar MyScenario.node[23].nic.mac1609_4 	totalBusyTime 	0
scalar MyScenario.node[23].veinsmobility 	startTime 	1
scalar MyScenario.node[23].veinsmobility 	totalTime 	10
scalar MyScenario.node[23].veinsmobility 	stopTime 	12
scalar MyScenario.node[23].veinsmobility 	minSpeed 	1.9403673083289
scalar MyScenario.node[23].veinsmobility 	maxSpeed 	13.818696135399
scalar MyScenario.node[23].veinsmobility 	totalDistance 	92.877690640566
scalar MyScenario.node[23].veinsmobility 	totalCO2Emission 	40.243830294784
scalar MyScenario.node[225].appl 	generatedWSMs 	0
scalar MyScenario.node[225].appl 	receivedWSMs 	0
scalar MyScenario.node[225].appl 	generatedBSMs 	0
scalar MyScenario.node[225].appl 	receivedBSMs 	0
scalar MyScenario.node[225].appl 	generatedWSAs 	0
scalar MyScenario.node[225].appl 	receivedWSAs 	0
scalar MyScenario.node[225].nic.phy80211p 	busyTime 	0.00030933333333333
scalar MyScenario.node[225].nic.mac1609_4 	ReceivedUnicastPackets 	0
scalar MyScenario.node[225].nic.mac1609_4 	ReceivedBroadcasts 	0
scalar MyScenario.node[225].nic.mac1609_4 	SentPackets 	0
scalar MyScenario.node[225].nic.mac1609_4 	SNIRLostPackets 	12
scalar MyScenario.node[225].nic.mac1609_4 	RXTXLostPackets 	0
scalar MyScenario.node[225].nic.mac1609_4 	TotalLostPackets 	12
scalar MyScenario.node[225].nic.mac1609_4 	DroppedPacketsInMac 	0
scalar MyScenario.node[225].nic.mac1609_4 	TooLittleTime 	0
scalar MyScenario.node[225].nic.mac1609_4 	TimesIntoBackoff 	0
scalar MyScenario.node[225].nic.mac1609_4 	SlotsBackoff 	0
scalar MyScenario.node[225].nic.mac1609_4 	NumInternalContention 	0
scalar MyScenario.node[225].nic.mac1609_4 	totalBusyTime 	0.000232
scalar MyScenario.node[225].veinsmobility 	startTime 	4
scalar MyScenario.node[225].veinsmobility 	totalTime 	8
scalar MyScenario.node[225].veinsmobility 	stopTime 	13
scalar MyScenario.node[225].veinsmobility 	minSpeed 	2.5704037294723
scalar MyScenario.node[225].veinsmobility 	maxSpeed 	13.391631582775
scalar MyScenario.node[225].veinsmobility 	totalDistance 	72.188510355004
scalar MyScenario.node[225].veinsmobility 	totalCO2Emission 	35.434740617641
scalar MyScenario.node[203].appl 	generatedWSMs 	1
scalar MyScenario.node[203].appl 	receivedWSMs 	1
scalar MyScenario.node[203].appl 	generatedBSMs 	0
scalar MyScenario.node[203].appl 	receivedBSMs 	0
scalar MyScenario.node[203].appl 	generatedWSAs 	0
scalar MyScenario.node[203].appl 	receivedWSAs 	0
scalar MyScenario.node[203].nic.phy80211p 	busyTime 	0.00025929411764706
scalar MyScenario.node[203].nic.mac1609_4 	ReceivedUnicastPackets 	0
scalar MyScenario.node[203].nic.mac1609_4 	ReceivedBroadcasts 	1
scalar MyScenario.node[203].nic.mac1609_4 	SentPackets 	1
scalar MyScenario.node[203].nic.mac1609_4 	SNIRLostPackets 	18
scalar MyScenario.node[203].nic.mac1609_4 	RXTXLostPackets 	4
scalar MyScenario.node[203].nic.mac1609_4 	TotalLostPackets 	22
scalar MyScenario.node[203].nic.mac1609_4 	DroppedPacketsInMac 	0
scalar MyScenario.node[203].nic.mac1609_4 	TooLittleTime 	0
scalar MyScenario.node[203].nic.mac1609_4 	TimesIntoBackoff 	1
scalar MyScenario.node[203].nic.mac1609_4 	SlotsBackoff 	2
scalar MyScenario.node[203].nic.mac1609_4 	NumInternalContention 	0
scalar MyScenario.node[203].nic.mac1609_4 	totalBusyTime 	0.001625
scalar MyScenario.node[203].veinsmobility 	startTime 	1
scalar MyScenario.node[203].veinsmobility 	totalTime 	16
scalar MyScenario.node[203].veinsmobility 	stopTime 	18
scalar MyScenario.node[203].veinsmobility 	minSpeed 	2.5312889968278
scalar MyScenario.node[203].veinsmobility 	maxSpeed 	13.874127648235
scalar MyScenario.node[203].veinsmobility 	totalDistance 	175.81612037616
scalar MyScenario.node[203].veinsmobility 	totalCO2Emission 	52.251002945999
scalar MyScenario.node[125].appl 	generatedWSMs 	1
scalar MyScenario.node[125].appl 	receivedWSMs 	1
scalar MyScenario.node[125].appl 	generatedBSMs 	0
scalar MyScenario.node[125].appl 	receivedBSMs 	0
scalar MyScenario.node[125].appl 	generatedWSAs 	0
scalar MyScenario.node[125].appl 	receivedWSAs 	0
scalar MyScenario.node[125].nic.phy80211p 	busyTime 	0.000116
scalar MyScenario.node[125].nic.mac1609_4 	ReceivedUnicastPackets 	0
scalar MyScenario.node[125].nic.mac1609_4 	ReceivedBroadcasts 	1
scalar MyScenario.node[125].nic.mac1609_4 	SentPackets 	1
scalar MyScenario.node[125].nic.mac1609_4 	SNIRLostPackets 	8
scalar MyScenario.node[125].nic.mac1609_4 	RXTXLostPackets 	9
scalar MyScenario.node[125].nic.mac1609_4 	TotalLostPackets 	17
scalar MyScenario.node[125].nic.mac1609_4 	DroppedPacketsInMac 	0
scalar MyScenario.node[125].nic.mac1609_4 	TooLittleTime 	0
scalar MyScenario.node[125].nic.mac1609_4 	TimesIntoBackoff 	1
scalar MyScenario.node[125].nic.mac1609_4 	SlotsBackoff 	3
scalar MyScenario.node[125].nic.mac1609_4 	NumInternalContention 	0
scalar MyScenario.node[125].nic.mac1609_4 	totalBusyTime 	0.001161106215
scalar MyScenario.node[125].veinsmobility 	startTime 	1
scalar MyScenario.node[125].veinsmobility 	totalTime 	17
scalar MyScenario.node[125].veinsmobility 	stopTime 	19
scalar MyScenario.node[125].veinsmobility 	minSpeed 	1.9616450376809
scalar MyScenario.node[125].veinsmobility 	maxSpeed 	13.7337031245
scalar MyScenario.node[125].veinsmobility 	totalDistance 	183.80741996753
scalar MyScenario.node[125].veinsmobility 	totalCO2Emission 	54.744203426881
scalar MyScenario.node[174].appl 	generatedWSMs 	0
scalar MyScenario.node[174].appl 	receivedWSMs 	0
scalar MyScenario.node[174].appl 	generatedBSMs 	0
scalar MyScenario.node[174].appl 	receivedBSMs 	0
scalar MyScenario.node[174].appl 	generatedWSAs 	0
scalar MyScenario.node[174].appl 	receivedWSAs 	0
scalar MyScenario.node[174].nic.phy80211p 	busyTime 	0.00016571428571429
scalar MyScenario.node[174].nic.mac1609_4 	ReceivedUnicastPackets 	0
scalar MyScenario.node[174].nic.mac1609_4 	ReceivedBroadcasts 	0
scalar MyScenario.node[174].nic.mac1609_4 	SentPackets 	0
scalar MyScenario.node[174].nic.mac1609_4 	SNIRLostPackets 	15
scalar MyScenario.node[174].nic.mac1609_4 	RXTXLostPackets 	0
scalar MyScenario.node[174].nic.mac1609_4 	TotalLostPackets 	15
scalar MyScenario.node[174].nic.mac1609_4 	DroppedPacketsInMac 	0
scalar MyScenario.node[174].nic.mac1609_4 	TooLittleTime 	0
scalar MyScenario.node[174].nic.mac1609_4 	TimesIntoBackoff 	0
scalar MyScenario.node[174].nic.mac1609_4 	SlotsBackoff 	0
scalar MyScenario.node[174].nic.mac1609_4 	NumInternalContention 	0
scalar MyScenario.node[174].nic.mac1609_4 	totalBusyTime 	0.000928
scalar MyScenario.node[174].veinsmobility 	startTime 	1
scalar MyScenario.node[174].veinsmobility 	totalTime 	20
scalar MyScenario.node[174].veinsmobility 	stopTime 	22
scalar MyScenario.node[174].veinsmobility 	minSpeed 	0.36030392554039
scalar MyScenario.node[174].veinsmobility 	maxSpeed 	13.62403846581
scalar MyScenario.node[174].veinsmobility 	totalDistance 	171.01392889972
scalar MyScenario.node[174].veinsmobility 	totalCO2Emission 	78.689671077888
scalar MyScenario.node[300].appl 	generatedWSMs 	0
scalar MyScenario.node[300].appl 	receivedWSMs 	0
scalar MyScenario.node[300].appl 	generatedBSMs 	0
scalar MyScenario.node[300].appl 	receivedBSMs 	0
scalar MyScenario.node[300].appl 	generatedWSAs 	0
scalar MyScenario.node[300].appl 	receivedWSAs 	0
scalar MyScenario.node[300].nic.phy80211p 	busyTime 	0
scalar MyScenario.node[300].nic.mac1609_4 	ReceivedUnicastPackets 	0
scalar MyScenario.node[300].nic.mac1609_4 	ReceivedBroadcasts 	0
scalar MyScenario.node[300].nic.mac1609_4 	SentPackets 	0
scalar MyScenario.node[300].nic.mac1609_4 	SNIRLostPackets 	0
scalar MyScenario.node[300].nic.mac1609_4 	RXTXLostPackets 	0
scalar MyScenario.node[300].nic.mac1609_4 	TotalLostPackets 	0
scalar MyScenario.node[300].nic.mac1609_4 	DroppedPacketsInMac 	0
scalar MyScenario.node[300].nic.mac1609_4 	TooLittleTime 	0
scalar MyScenario.node[300].nic.mac1609_4 	TimesIntoBackoff 	0
scalar MyScenario.node[300].nic.mac1609_4 	SlotsBackoff 	0
scalar MyScenario.node[300].nic.mac1609_4 	NumInternalContention 	0
scalar MyScenario.node[300].nic.mac1609_4 	totalBusyTime 	0
scalar MyScenario.node[300].veinsmobility 	startTime 	11
scalar MyScenario.node[300].veinsmobility 	totalTime 	13
scalar MyScenario.node[300].veinsmobility 	stopTime 	25
scalar MyScenario.node[300].veinsmobility 	minSpeed 	12.618831161573
scalar MyScenario.node[300].veinsmobility 	maxSpeed 	13.894577643578
scalar MyScenario.node[300].veinsmobility 	totalDistance 	174.56552855077
scalar MyScenario.node[300].veinsmobility 	totalCO2Emission 	29.848204364853
scalar MyScenario.node[137].appl 	generatedWSMs 	0
scalar MyScenario.node[137].appl 	receivedWSMs 	0
scalar MyScenario.node[137].appl 	generatedBSMs 	0
scalar MyScenario.node[137].appl 	receivedBSMs 	0
scalar MyScenario.node[137].appl 	generatedWSAs 	0
scalar MyScenario.node[137].appl 	receivedWSAs 	0
scalar MyScenario.node[137].nic.phy80211p 	busyTime 	0
scalar MyScenario.node[137].nic.mac1609_4 	ReceivedUnicastPackets 	0
scalar MyScenario.node[137].nic.mac1609_4 	ReceivedBroadcasts 	0
scalar MyScenario.node[137].nic.mac1609_4 	SentPackets 	0
scalar MyScenario.node[137].nic.mac1609_4 	SNIRLostPackets 	0
scalar MyScenario.node[137].nic.mac1609_4 	RXTXLostPackets 	0
scalar MyScenario.node[137].nic.mac1609_4 	TotalLostPackets 	0
scalar MyScenario.node[137].nic.mac1609_4 	DroppedPacketsInMac 	0
scalar MyScenario.node[137].nic.mac1609_4 	TooLittleTime 	0
scalar MyScenario.node[137].nic.mac1609_4 	TimesIntoBackoff 	0
scalar MyScenario.node[137].nic.mac1609_4 	SlotsBackoff 	0
scalar MyScenario.node[137].nic.mac1609_4 	NumInternalContention 	0
scalar MyScenario.node[137].nic.mac1609_4 	totalBusyTime 	0
scalar MyScenario.node[137].veinsmobility 	startTime 	1
scalar MyScenario.node[137].veinsmobility 	totalTime 	25
scalar MyScenario.node[137].veinsmobility 	stopTime 	27
scalar MyScenario.node[137].veinsmobility 	minSpeed 	1.8452889368637
scalar MyScenario.node[137].veinsmobility 	maxSpeed 	13.818795413175
scalar MyScenario.node[137].veinsmobility 	totalDistance 	273.93831141204
scalar MyScenario.node[137].veinsmobility 	totalCO2Emission 	88.11003908914
scalar MyScenario.node[193].appl 	generatedWSMs 	0
scalar MyScenario.node[193].appl 	receivedWSMs 	0
scalar MyScenario.node[193].appl 	generatedBSMs 	0
scalar MyScenario.node[193].appl 	receivedBSMs 	0
scalar MyScenario.node[193].appl 	generatedWSAs 	0
scalar MyScenario.node[193].appl 	receivedWSAs 	0
scalar MyScenario.node[193].nic.phy80211p 	busyTime 	0
scalar MyScenario.node[193].nic.mac1609_4 	ReceivedUnicastPackets 	0
scalar MyScenario.node[193].nic.mac1609_4 	ReceivedBroadcasts 	0
scalar MyScenario.node[193].nic.mac1609_4 	SentPackets 	0
scalar MyScenario.node[193].nic.mac1609_4 	SNIRLostPackets 	0
scalar MyScenario.node[193].nic.mac1609_4 	RXTXLostPackets 	0
scalar MyScenario.node[193].nic.mac1609_4 	TotalLostPackets 	0
scalar MyScenario.node[193].nic.mac1609_4 	DroppedPacketsInMac 	0
scalar MyScenario.node[193].nic.mac1609_4 	TooLittleTime 	0
scalar MyScenario.node[193].nic.mac1609_4 	TimesIntoBackoff 	0
scalar MyScenario.node[193].nic.mac1609_4 	SlotsBackoff 	0
scalar MyScenario.node[193].nic.mac1609_4 	NumInternalContention 	0
scalar MyScenario.node[193].nic.mac1609_4 	totalBusyTime 	0
scalar MyScenario.node[193].veinsmobility 	startTime 	1
scalar MyScenario.node[193].veinsmobility 	totalTime 	26
scalar MyScenario.node[193].veinsmobility 	stopTime 	28
scalar MyScenario.node[193].veinsmobility 	minSpeed 	1.3046075610677
scalar MyScenario.node[193].veinsmobility 	maxSpeed 	13.880777464621
scalar MyScenario.node[193].veinsmobility 	totalDistance 	261.18638037907
scalar MyScenario.node[193].veinsmobility 	totalCO2Emission 	93.276700432179
scalar MyScenario.node[81].appl 	generatedWSMs 	1
scalar MyScenario.node[81].appl 	receivedWSMs 	7
scalar MyScenario.node[81].appl 	generatedBSMs 	0
scalar MyScenario.node[81].appl 	receivedBSMs 	0
scalar MyScenario.node[81].appl 	generatedWSAs 	0
scalar MyScenario.node[81].appl 	receivedWSAs 	0
scalar MyScenario.node[81].nic.phy80211p 	busyTime 	9.9428571428571e-05
scalar MyScenario.node[81].nic.mac1609_4 	ReceivedUnicastPackets 	0
scalar MyScenario.node[81].nic.mac1609_4 	ReceivedBroadcasts 	7
scalar MyScenario.node[81].nic.mac1609_4 	SentPackets 	1
scalar MyScenario.node[81].nic.mac1609_4 	SNIRLostPackets 	5
scalar MyScenario.node[81].nic.mac1609_4 	RXTXLostPackets 	18
scalar MyScenario.node[81].nic.mac1609_4 	TotalLostPackets 	23
scalar MyScenario.node[81].nic.mac1609_4 	DroppedPacketsInMac 	0
scalar MyScenario.node[81].nic.mac1609_4 	TooLittleTime 	0
scalar MyScenario.node[81].nic.mac1609_4 	TimesIntoBackoff 	1
scalar MyScenario.node[81].nic.mac1609_4 	SlotsBackoff 	1
scalar MyScenario.node[81].nic.mac1609_4 	NumInternalContention 	0
scalar MyScenario.node[81].nic.mac1609_4 	totalBusyTime 	0.00232103402
scalar MyScenario.node[81].veinsmobility 	startTime 	1
scalar MyScenario.node[81].veinsmobility 	totalTime 	27
scalar MyScenario.node[81].veinsmobility 	stopTime 	29
scalar MyScenario.node[81].veinsmobility 	minSpeed 	1.3004832707345
scalar MyScenario.node[81].veinsmobility 	maxSpeed 	13.877484028321
scalar MyScenario.node[81].veinsmobility 	totalDistance 	277.55886978185
scalar MyScenario.node[81].veinsmobility 	totalCO2Emission 	91.939122370966
scalar MyScenario.node[228].appl 	generatedWSMs 	0
scalar MyScenario.node[228].appl 	receivedWSMs 	0
scalar MyScenario.node[228].appl 	generatedBSMs 	0
scalar MyScenario.node[228].appl 	receivedBSMs 	0
scalar MyScenario.node[228].appl 	generatedWSAs 	0
scalar MyScenario.node[228].appl 	receivedWSAs 	0
scalar MyScenario.node[228].nic.phy80211p 	busyTime 	0
scalar MyScenario.node[228].nic.mac1609_4 	ReceivedUnicastPackets 	0
scalar MyScenario.node[228].nic.mac1609_4 	ReceivedBroadcasts 	0
scalar MyScenario.node[228].nic.mac1609_4 	SentPackets 	0
scalar MyScenario.node[228].nic.mac1609_4 	SNIRLostPackets 	0
scalar MyScenario.node[228].nic.mac1609_4 	RXTXLostPackets 	0
scalar MyScenario.node[228].nic.mac1609_4 	TotalLostPackets 	0
scalar MyScenario.node[228].nic.mac1609_4 	DroppedPacketsInMac 	0
scalar MyScenario.node[228].nic.mac1609_4 	TooLittleTime 	0
scalar MyScenario.node[228].nic.mac1609_4 	TimesIntoBackoff 	0
scalar MyScenario.node[228].nic.mac1609_4 	SlotsBackoff 	0
scalar MyScenario.node[228].nic.mac1609_4 	NumInternalContention 	0
scalar MyScenario.node[228].nic.mac1609_4 	totalBusyTime 	0
scalar MyScenario.node[228].veinsmobility 	startTime 	4
scalar MyScenario.node[228].veinsmobility 	totalTime 	25
scalar MyScenario.node[228].veinsmobility 	stopTime 	30
scalar MyScenario.node[228].veinsmobility 	minSpeed 	1.3498464884004
scalar MyScenario.node[228].veinsmobility 	maxSpeed 	13.887158570625
scalar MyScenario.node[228].veinsmobility 	totalDistance 	275.19441722772
scalar MyScenario.node[228].veinsmobility 	totalCO2Emission 	93.123454292175
scalar MyScenario.node[127].appl 	generatedWSMs 	1
scalar MyScenario.node[127].appl 	receivedWSMs 	1
scalar MyScenario.node[127].appl 	generatedBSMs 	0
scalar MyScenario.node[127].appl 	receivedBSMs 	0
scalar MyScenario.node[127].appl 	generatedWSAs 	0
scalar MyScenario.node[127].appl 	receivedWSAs 	0
scalar MyScenario.node[127].nic.phy80211p 	busyTime 	2.7294117647059e-05
scalar MyScenario.node[127].nic.mac1609_4 	ReceivedUnicastPackets 	0
scalar MyScenario.node[127].nic.mac1609_4 	ReceivedBroadcasts 	1
scalar MyScenario.node[127].nic.mac1609_4 	SentPackets 	1
scalar MyScenario.node[127].nic.mac1609_4 	SNIRLostPackets 	3
scalar MyScenario.node[127].nic.mac1609_4 	RXTXLostPackets 	3
scalar MyScenario.node[127].nic.mac1609_4 	TotalLostPackets 	6
scalar MyScenario.node[127].nic.mac1609_4 	DroppedPacketsInMac 	0
scalar MyScenario.node[127].nic.mac1609_4 	TooLittleTime 	0
scalar MyScenario.node[127].nic.mac1609_4 	TimesIntoBackoff 	1
scalar MyScenario.node[127].nic.mac1609_4 	SlotsBackoff 	2
scalar MyScenario.node[127].nic.mac1609_4 	NumInternalContention 	0
scalar MyScenario.node[127].nic.mac1609_4 	totalBusyTime 	0.00069708564
scalar MyScenario.node[127].veinsmobility 	startTime 	1
scalar MyScenario.node[127].veinsmobility 	totalTime 	33
scalar MyScenario.node[127].veinsmobility 	stopTime 	35
scalar MyScenario.node[127].veinsmobility 	minSpeed 	1.373564095702
scalar MyScenario.node[127].veinsmobility 	maxSpeed 	13.884137714468
scalar MyScenario.node[127].veinsmobility 	totalDistance 	377.76392870081
scalar MyScenario.node[127].veinsmobility 	totalCO2Emission 	107.44050706598
scalar MyScenario.node[232].appl 	generatedWSMs 	0
scalar MyScenario.node[232].appl 	receivedWSMs 	0
scalar MyScenario.node[232].appl 	generatedBSMs 	0
scalar MyScenario.node[232].appl 	receivedBSMs 	0
scalar MyScenario.node[232].appl 	generatedWSAs 	0
scalar MyScenario.node[232].appl 	receivedWSAs 	0
scalar MyScenario.node[232].nic.phy80211p 	busyTime 	5.075e-05
scalar MyScenario.node[232].nic.mac1609_4 	ReceivedUnicastPackets 	0
scalar MyScenario.node[232].nic.mac1609_4 	ReceivedBroadcasts 	0
scalar MyScenario.node[232].nic.mac1609_4 	SentPackets 	0
scalar MyScenario.node[232].nic.mac1609_4 	SNIRLostPackets 	7
scalar MyScenario.node[232].nic.mac1609_4 	RXTXLostPackets 	0
scalar MyScenario.node[232].nic.mac1609_4 	TotalLostPackets 	7
scalar MyScenario.node[232].nic.mac1609_4 	DroppedPacketsInMac 	0
scalar MyScenario.node[232].nic.mac1609_4 	TooLittleTime 	0
scalar MyScenario.node[232].nic.mac1609_4 	TimesIntoBackoff 	0
scalar MyScenario.node[232].nic.mac1609_4 	SlotsBackoff 	0
scalar MyScenario.node[232].nic.mac1609_4 	NumInternalContention 	0
scalar MyScenario.node[232].nic.mac1609_4 	totalBusyTime 	0.000232
scalar MyScenario.node[232].veinsmobility 	startTime 	4
scalar MyScenario.node[232].veinsmobility 	totalTime 	31
scalar MyScenario.node[232].veinsmobility 	stopTime 	36
scalar MyScenario.node[232].veinsmobility 	minSpeed 	1.5302951524034
scalar MyScenario.node[232].veinsmobility 	maxSpeed 	13.875171802565
scalar MyScenario.node[232].veinsmobility 	totalDistance 	366.79463679145
scalar MyScenario.node[232].veinsmobility 	totalCO2Emission 	89.266559372101
scalar MyScenario.node[202].appl 	generatedWSMs 	0
scalar MyScenario.node[202].appl 	receivedWSMs 	0
scalar MyScenario.node[202].appl 	generatedBSMs 	0
scalar MyScenario.node[202].appl 	receivedBSMs 	0
scalar MyScenario.node[202].appl 	generatedWSAs 	0
scalar MyScenario.node[202].appl 	receivedWSAs 	0
scalar MyScenario.node[202].nic.phy80211p 	busyTime 	6.6285714285714e-06
scalar MyScenario.node[202].nic.mac1609_4 	ReceivedUnicastPackets 	0
scalar MyScenario.node[202].nic.mac1609_4 	ReceivedBroadcasts 	0
scalar MyScenario.node[202].nic.mac1609_4 	SentPackets 	0
scalar MyScenario.node[202].nic.mac1609_4 	SNIRLostPackets 	1
scalar MyScenario.node[202].nic.mac1609_4 	RXTXLostPackets 	0
scalar MyScenario.node[202].nic.mac1609_4 	TotalLostPackets 	1
scalar MyScenario.node[202].nic.mac1609_4 	DroppedPacketsInMac 	0
scalar MyScenario.node[202].nic.mac1609_4 	TooLittleTime 	0
scalar MyScenario.node[202].nic.mac1609_4 	TimesIntoBackoff 	0
scalar MyScenario.node[202].nic.mac1609_4 	SlotsBackoff 	0
scalar MyScenario.node[202].nic.mac1609_4 	NumInternalContention 	0
scalar MyScenario.node[202].nic.mac1609_4 	totalBusyTime 	0.000232
scalar MyScenario.node[202].veinsmobility 	startTime 	1
scalar MyScenario.node[202].veinsmobility 	totalTime 	34
scalar MyScenario.node[202].veinsmobility 	stopTime 	36
scalar MyScenario.node[202].veinsmobility 	minSpeed 	2.4847498280462
scalar MyScenario.node[202].veinsmobility 	maxSpeed 	13.871758364909
scalar MyScenario.node[202].veinsmobility 	totalDistance 	376.5335515542
scalar MyScenario.node[202].veinsmobility 	totalCO2Emission 	118.66219436317
scalar MyScenario.node[236].appl 	generatedWSMs 	0
scalar MyScenario.node[236].appl 	receivedWSMs 	0
scalar MyScenario.node[236].appl 	generatedBSMs 	0
scalar MyScenario.node[236].appl 	receivedBSMs 	0
scalar MyScenario.node[236].appl 	generatedWSAs 	0
scalar MyScenario.node[236].appl 	receivedWSAs 	0
scalar MyScenario.node[236].nic.phy80211p 	busyTime 	0
scalar MyScenario.node[236].nic.mac1609_4 	ReceivedUnicastPackets 	0
scalar MyScenario.node[236].nic.mac1609_4 	ReceivedBroadcasts 	0
scalar MyScenario.node[236].nic.mac1609_4 	SentPackets 	0
scalar MyScenario.node[236].nic.mac1609_4 	SNIRLostPackets 	0
scalar MyScenario.node[236].nic.mac1609_4 	RXTXLostPackets 	0
scalar MyScenario.node[236].nic.mac1609_4 	TotalLostPackets 	0
scalar MyScenario.node[236].nic.mac1609_4 	DroppedPacketsInMac 	0
scalar MyScenario.node[236].nic.mac1609_4 	TooLittleTime 	0
scalar MyScenario.node[236].nic.mac1609_4 	TimesIntoBackoff 	0
scalar MyScenario.node[236].nic.mac1609_4 	SlotsBackoff 	0
scalar MyScenario.node[236].nic.mac1609_4 	NumInternalContention 	0
scalar MyScenario.node[236].nic.mac1609_4 	totalBusyTime 	0
scalar MyScenario.node[236].veinsmobility 	startTime 	4
scalar MyScenario.node[236].veinsmobility 	totalTime 	31
scalar MyScenario.node[236].veinsmobility 	stopTime 	36
scalar MyScenario.node[236].veinsmobility 	minSpeed 	2.3864875228843
scalar MyScenario.node[236].veinsmobility 	maxSpeed 	13.860638714349
scalar MyScenario.node[236].veinsmobility 	totalDistance 	375.55252131291
scalar MyScenario.node[236].veinsmobility 	totalCO2Emission 	90.008032882263
scalar MyScenario.node[152].appl 	generatedWSMs 	1
scalar MyScenario.node[152].appl 	receivedWSMs 	3
scalar MyScenario.node[152].appl 	generatedBSMs 	0
scalar MyScenario.node[152].appl 	receivedBSMs 	0
scalar MyScenario.node[152].appl 	generatedWSAs 	0
scalar MyScenario.node[152].appl 	receivedWSAs 	0
scalar MyScenario.node[152].nic.phy80211p 	busyTime 	0.00010311111111111
scalar MyScenario.node[152].nic.mac1609_4 	ReceivedUnicastPackets 	0
scalar MyScenario.node[152].nic.mac1609_4 	ReceivedBroadcasts 	3
scalar MyScenario.node[152].nic.mac1609_4 	SentPackets 	1
scalar MyScenario.node[152].nic.mac1609_4 	SNIRLostPackets 	13
scalar MyScenario.node[152].nic.mac1609_4 	RXTXLostPackets 	20
scalar MyScenario.node[152].nic.mac1609_4 	TotalLostPackets 	33
scalar MyScenario.node[152].nic.mac1609_4 	DroppedPacketsInMac 	0
scalar MyScenario.node[152].nic.mac1609_4 	TooLittleTime 	0
scalar MyScenario.node[152].nic.mac1609_4 	TimesIntoBackoff 	1
scalar MyScenario.node[152].nic.mac1609_4 	SlotsBackoff 	3
scalar MyScenario.node[152].nic.mac1609_4 	NumInternalContention 	0
scalar MyScenario.node[152].nic.mac1609_4 	totalBusyTime 	0.00185717202
scalar MyScenario.node[152].veinsmobility 	startTime 	1
scalar MyScenario.node[152].veinsmobility 	totalTime 	35
scalar MyScenario.node[152].veinsmobility 	stopTime 	37
scalar MyScenario.node[152].veinsmobility 	minSpeed 	2.3040117676137
scalar MyScenario.node[152].veinsmobility 	maxSpeed 	13.764415355306
scalar MyScenario.node[152].veinsmobility 	totalDistance 	374.51105608107
scalar MyScenario.node[152].veinsmobility 	totalCO2Emission 	123.83229291538
scalar MyScenario.node[77].appl 	generatedWSMs 	0
scalar MyScenario.node[77].appl 	receivedWSMs 	0
scalar MyScenario.node[77].appl 	generatedBSMs 	0
scalar MyScenario.node[77].appl 	receivedBSMs 	0
scalar MyScenario.node[77].appl 	generatedWSAs 	0
scalar MyScenario.node[77].appl 	receivedWSAs 	0
scalar MyScenario.node[77].nic.phy80211p 	busyTime 	0.00018183783783784
scalar MyScenario.node[77].nic.mac1609_4 	ReceivedUnicastPackets 	0
scalar MyScenario.node[77].nic.mac1609_4 	ReceivedBroadcasts 	0
scalar MyScenario.node[77].nic.mac1609_4 	SentPackets 	0
scalar MyScenario.node[77].nic.mac1609_4 	SNIRLostPackets 	29
scalar MyScenario.node[77].nic.mac1609_4 	RXTXLostPackets 	0
scalar MyScenario.node[77].nic.mac1609_4 	TotalLostPackets 	29
scalar MyScenario.node[77].nic.mac1609_4 	DroppedPacketsInMac 	0
scalar MyScenario.node[77].nic.mac1609_4 	TooLittleTime 	0
scalar MyScenario.node[77].nic.mac1609_4 	TimesIntoBackoff 	0
scalar MyScenario.node[77].nic.mac1609_4 	SlotsBackoff 	0
scalar MyScenario.node[77].nic.mac1609_4 	NumInternalContention 	0
scalar MyScenario.node[77].nic.mac1609_4 	totalBusyTime 	0.00116
scalar MyScenario.node[77].veinsmobility 	startTime 	1
scalar MyScenario.node[77].veinsmobility 	totalTime 	36
scalar MyScenario.node[77].veinsmobility 	stopTime 	38
scalar MyScenario.node[77].veinsmobility 	minSpeed 	2.2785180991981
scalar MyScenario.node[77].veinsmobility 	maxSpeed 	13.840130950743
scalar MyScenario.node[77].veinsmobility 	totalDistance 	378.41449803912
scalar MyScenario.node[77].veinsmobility 	totalCO2Emission 	132.29985573013
scalar MyScenario.node[227].appl 	generatedWSMs 	0
scalar MyScenario.node[227].appl 	receivedWSMs 	0
scalar MyScenario.node[227].appl 	generatedBSMs 	0
scalar MyScenario.node[227].appl 	receivedBSMs 	0
scalar MyScenario.node[227].appl 	generatedWSAs 	0
scalar MyScenario.node[227].appl 	receivedWSAs 	0
scalar MyScenario.node[227].nic.phy80211p 	busyTime 	0
scalar MyScenario.node[227].nic.mac1609_4 	ReceivedUnicastPackets 	0
scalar MyScenario.node[227].nic.mac1609_4 	ReceivedBroadcasts 	0
scalar MyScenario.node[227].nic.mac1609_4 	SentPackets 	0
scalar MyScenario.node[227].nic.mac1609_4 	SNIRLostPackets 	0
scalar MyScenario.node[227].nic.mac1609_4 	RXTXLostPackets 	0
scalar MyScenario.node[227].nic.mac1609_4 	TotalLostPackets 	0
scalar MyScenario.node[227].nic.mac1609_4 	DroppedPacketsInMac 	0
scalar MyScenario.node[227].nic.mac1609_4 	TooLittleTime 	0
scalar MyScenario.node[227].nic.mac1609_4 	TimesIntoBackoff 	0
scalar MyScenario.node[227].nic.mac1609_4 	SlotsBackoff 	0
scalar MyScenario.node[227].nic.mac1609_4 	NumInternalContention 	0
scalar MyScenario.node[227].nic.mac1609_4 	totalBusyTime 	0
scalar MyScenario.node[227].veinsmobility 	startTime 	4
scalar MyScenario.node[227].veinsmobility 	totalTime 	34
scalar MyScenario.node[227].veinsmobility 	stopTime 	39
scalar MyScenario.node[227].veinsmobility 	minSpeed 	0.0011755379962207
scalar MyScenario.node[227].veinsmobility 	maxSpeed 	13.845744143473
scalar MyScenario.node[227].veinsmobility 	totalDistance 	273.63261148093
scalar MyScenario.node[227].veinsmobility 	totalCO2Emission 	114.93466315485
scalar MyScenario.node[96].appl 	generatedWSMs 	0
scalar MyScenario.node[96].appl 	receivedWSMs 	0
scalar MyScenario.node[96].appl 	generatedBSMs 	0
scalar MyScenario.node[96].appl 	receivedBSMs 	0
scalar MyScenario.node[96].appl 	generatedWSAs 	0
scalar MyScenario.node[96].appl 	receivedWSAs 	0
scalar MyScenario.node[96].nic.phy80211p 	busyTime 	6.1052631578947e-06
scalar MyScenario.node[96].nic.mac1609_4 	ReceivedUnicastPackets 	0
scalar MyScenario.node[96].nic.mac1609_4 	ReceivedBroadcasts 	0
scalar MyScenario.node[96].nic.mac1609_4 	SentPackets 	0
scalar MyScenario.node[96].nic.mac1609_4 	SNIRLostPackets 	1
scalar MyScenario.node[96].nic.mac1609_4 	RXTXLostPackets 	0
scalar MyScenario.node[96].nic.mac1609_4 	TotalLostPackets 	1
scalar MyScenario.node[96].nic.mac1609_4 	DroppedPacketsInMac 	0
scalar MyScenario.node[96].nic.mac1609_4 	TooLittleTime 	0
scalar MyScenario.node[96].nic.mac1609_4 	TimesIntoBackoff 	0
scalar MyScenario.node[96].nic.mac1609_4 	SlotsBackoff 	0
scalar MyScenario.node[96].nic.mac1609_4 	NumInternalContention 	0
scalar MyScenario.node[96].nic.mac1609_4 	totalBusyTime 	0.000232
scalar MyScenario.node[96].veinsmobility 	startTime 	1
scalar MyScenario.node[96].veinsmobility 	totalTime 	37
scalar MyScenario.node[96].veinsmobility 	stopTime 	39
scalar MyScenario.node[96].veinsmobility 	minSpeed 	0.26457259677647
scalar MyScenario.node[96].veinsmobility 	maxSpeed 	13.875689055165
scalar MyScenario.node[96].veinsmobility 	totalDistance 	370.21411546774
scalar MyScenario.node[96].veinsmobility 	totalCO2Emission 	115.53235084962
scalar MyScenario.node[251].appl 	generatedWSMs 	0
scalar MyScenario.node[251].appl 	receivedWSMs 	0
scalar MyScenario.node[251].appl 	generatedBSMs 	0
scalar MyScenario.node[251].appl 	receivedBSMs 	0
scalar MyScenario.node[251].appl 	generatedWSAs 	0
scalar MyScenario.node[251].appl 	receivedWSAs 	0
scalar MyScenario.node[251].nic.phy80211p 	busyTime 	0.00010605714285714
scalar MyScenario.node[251].nic.mac1609_4 	ReceivedUnicastPackets 	0
scalar MyScenario.node[251].nic.mac1609_4 	ReceivedBroadcasts 	0
scalar MyScenario.node[251].nic.mac1609_4 	SentPackets 	0
scalar MyScenario.node[251].nic.mac1609_4 	SNIRLostPackets 	16
scalar MyScenario.node[251].nic.mac1609_4 	RXTXLostPackets 	0
scalar MyScenario.node[251].nic.mac1609_4 	TotalLostPackets 	16
scalar MyScenario.node[251].nic.mac1609_4 	DroppedPacketsInMac 	0
scalar MyScenario.node[251].nic.mac1609_4 	TooLittleTime 	0
scalar MyScenario.node[251].nic.mac1609_4 	TimesIntoBackoff 	0
scalar MyScenario.node[251].nic.mac1609_4 	SlotsBackoff 	0
scalar MyScenario.node[251].nic.mac1609_4 	NumInternalContention 	0
scalar MyScenario.node[251].nic.mac1609_4 	totalBusyTime 	0.000464017912
scalar MyScenario.node[251].veinsmobility 	startTime 	4
scalar MyScenario.node[251].veinsmobility 	totalTime 	34
scalar MyScenario.node[251].veinsmobility 	stopTime 	39
scalar MyScenario.node[251].veinsmobility 	minSpeed 	1.6550449322443
scalar MyScenario.node[251].veinsmobility 	maxSpeed 	13.885723660863
scalar MyScenario.node[251].veinsmobility 	totalDistance 	374.51649365135
scalar MyScenario.node[251].veinsmobility 	totalCO2Emission 	120.38258417025
scalar MyScenario.node[158].appl 	generatedWSMs 	1
scalar MyScenario.node[158].appl 	receivedWSMs 	5
scalar MyScenario.node[158].appl 	generatedBSMs 	0
scalar MyScenario.node[158].appl 	receivedBSMs 	0
scalar MyScenario.node[158].appl 	generatedWSAs 	0
scalar MyScenario.node[158].appl 	receivedWSAs 	0
scalar MyScenario.node[158].nic.phy80211p 	busyTime 	0.00015466666666667
scalar MyScenario.node[158].nic.mac1609_4 	ReceivedUnicastPackets 	0
scalar MyScenario.node[158].nic.mac1609_4 	ReceivedBroadcasts 	5
scalar MyScenario.node[158].nic.mac1609_4 	SentPackets 	1
scalar MyScenario.node[158].nic.mac1609_4 	SNIRLostPackets 	21
scalar MyScenario.node[158].nic.mac1609_4 	RXTXLostPackets 	3
scalar MyScenario.node[158].nic.mac1609_4 	TotalLostPackets 	24
scalar MyScenario.node[158].nic.mac1609_4 	DroppedPacketsInMac 	0
scalar MyScenario.node[158].nic.mac1609_4 	TooLittleTime 	0
scalar MyScenario.node[158].nic.mac1609_4 	TimesIntoBackoff 	1
scalar MyScenario.node[158].nic.mac1609_4 	SlotsBackoff 	3
scalar MyScenario.node[158].nic.mac1609_4 	NumInternalContention 	0
scalar MyScenario.node[158].nic.mac1609_4 	totalBusyTime 	0.002321
scalar MyScenario.node[158].veinsmobility 	startTime 	1
scalar MyScenario.node[158].veinsmobility 	totalTime 	38
scalar MyScenario.node[158].veinsmobility 	stopTime 	40
scalar MyScenario.node[158].veinsmobility 	minSpeed 	0.026313580707152
scalar MyScenario.node[158].veinsmobility 	maxSpeed 	13.651174737746
scalar MyScenario.node[158].veinsmobility 	totalDistance 	372.37989488017
scalar MyScenario.node[158].veinsmobility 	totalCO2Emission 	104.21826977395
scalar MyScenario.node[118].appl 	generatedWSMs 	1
scalar MyScenario.node[118].appl 	receivedWSMs 	1
scalar MyScenario.node[118].appl 	generatedBSMs 	0
scalar MyScenario.node[118].appl 	receivedBSMs 	0
scalar MyScenario.node[118].appl 	generatedWSAs 	0
scalar MyScenario.node[118].appl 	receivedWSAs 	0
scalar MyScenario.node[118].nic.phy80211p 	busyTime 	2.3794871794872e-05
scalar MyScenario.node[118].nic.mac1609_4 	ReceivedUnicastPackets 	0
scalar MyScenario.node[118].nic.mac1609_4 	ReceivedBroadcasts 	1
scalar MyScenario.node[118].nic.mac1609_4 	SentPackets 	1
scalar MyScenario.node[118].nic.mac1609_4 	SNIRLostPackets 	3
scalar MyScenario.node[118].nic.mac1609_4 	RXTXLostPackets 	13
scalar MyScenario.node[118].nic.mac1609_4 	TotalLostPackets 	16
scalar MyScenario.node[118].nic.mac1609_4 	DroppedPacketsInMac 	0
scalar MyScenario.node[118].nic.mac1609_4 	TooLittleTime 	0
scalar MyScenario.node[118].nic.mac1609_4 	TimesIntoBackoff 	1
scalar MyScenario.node[118].nic.mac1609_4 	SlotsBackoff 	3
scalar MyScenario.node[118].nic.mac1609_4 	NumInternalContention 	0
scalar MyScenario.node[118].nic.mac1609_4 	totalBusyTime 	0.000697
scalar MyScenario.node[118].veinsmobility 	startTime 	1
scalar MyScenario.node[118].veinsmobility 	totalTime 	38
scalar MyScenario.node[118].veinsmobility 	stopTime 	40
scalar MyScenario.node[118].veinsmobility 	minSpeed 	0.0081836749309132
scalar MyScenario.node[118].veinsmobility 	maxSpeed 	13.793461190746
scalar MyScenario.node[118].veinsmobility 	totalDistance 	379.03380880741
scalar MyScenario.node[118].veinsmobility 	totalCO2Emission 	113.31812664262
scalar MyScenario.node[58].appl 	generatedWSMs 	1
scalar MyScenario.node[58].appl 	receivedWSMs 	1
scalar MyScenario.node[58].appl 	generatedBSMs 	0
scalar MyScenario.node[58].appl 	receivedBSMs 	0
scalar MyScenario.node[58].appl 	generatedWSAs 	0
scalar MyScenario.node[58].appl 	receivedWSAs 	0
scalar MyScenario.node[58].nic.phy80211p 	busyTime 	8.12e-05
scalar MyScenario.node[58].nic.mac1609_4 	ReceivedUnicastPackets 	0
scalar MyScenario.node[58].nic.mac1609_4 	ReceivedBroadcasts 	1
scalar MyScenario.node[58].nic.mac1609_4 	SentPackets 	1
scalar MyScenario.node[58].nic.mac1609_4 	SNIRLostPackets 	13
scalar MyScenario.node[58].nic.mac1609_4 	RXTXLostPackets 	15
scalar MyScenario.node[58].nic.mac1609_4 	TotalLostPackets 	28
scalar MyScenario.node[58].nic.mac1609_4 	DroppedPacketsInMac 	0
scalar MyScenario.node[58].nic.mac1609_4 	TooLittleTime 	0
scalar MyScenario.node[58].nic.mac1609_4 	TimesIntoBackoff 	1
scalar MyScenario.node[58].nic.mac1609_4 	SlotsBackoff 	1
scalar MyScenario.node[58].nic.mac1609_4 	NumInternalContention 	0
scalar MyScenario.node[58].nic.mac1609_4 	totalBusyTime 	0.001161160171
scalar MyScenario.node[58].veinsmobility 	startTime 	1
scalar MyScenario.node[58].veinsmobility 	totalTime 	39
scalar MyScenario.node[58].veinsmobility 	stopTime 	41
scalar MyScenario.node[58].veinsmobility 	minSpeed 	1.6395077496767
scalar MyScenario.node[58].veinsmobility 	maxSpeed 	13.872910669167
scalar MyScenario.node[58].veinsmobility 	totalDistance 	458.19606349785
scalar MyScenario.node[58].veinsmobility 	totalCO2Emission 	118.06145378631
scalar MyScenario.node[40].appl 	generatedWSMs 	0
scalar MyScenario.node[40].appl 	receivedWSMs 	0
scalar MyScenario.node[40].appl 	generatedBSMs 	0
scalar MyScenario.node[40].appl 	receivedBSMs 	0
scalar MyScenario.node[40].appl 	generatedWSAs 	0
scalar MyScenario.node[40].appl 	receivedWSAs 	0
scalar MyScenario.node[40].nic.phy80211p 	busyTime 	6.96e-05
scalar MyScenario.node[40].nic.mac1609_4 	ReceivedUnicastPackets 	0
scalar MyScenario.node[40].nic.mac1609_4 	ReceivedBroadcasts 	0
scalar MyScenario.node[40].nic.mac1609_4 	SentPackets 	0
scalar MyScenario.node[40].nic.mac1609_4 	SNIRLostPackets 	12
scalar MyScenario.node[40].nic.mac1609_4 	RXTXLostPackets 	0
scalar MyScenario.node[40].nic.mac1609_4 	TotalLostPackets 	12
scalar MyScenario.node[40].nic.mac1609_4 	DroppedPacketsInMac 	0
scalar MyScenario.node[40].nic.mac1609_4 	TooLittleTime 	0
scalar MyScenario.node[40].nic.mac1609_4 	TimesIntoBackoff 	0
scalar MyScenario.node[40].nic.mac1609_4 	SlotsBackoff 	0
scalar MyScenario.node[40].nic.mac1609_4 	NumInternalContention 	0
scalar MyScenario.node[40].nic.mac1609_4 	totalBusyTime 	0.000232
scalar MyScenario.node[40].veinsmobility 	startTime 	1
scalar MyScenario.node[40].veinsmobility 	totalTime 	39
scalar MyScenario.node[40].veinsmobility 	stopTime 	41
scalar MyScenario.node[40].veinsmobility 	minSpeed 	0.24252302632084
scalar MyScenario.node[40].veinsmobility 	maxSpeed 	13.870061775716
scalar MyScenario.node[40].veinsmobility 	totalDistance 	372.30594719681
scalar MyScenario.node[40].veinsmobility 	totalCO2Emission 	134.97165670075
scalar MyScenario.node[179].appl 	generatedWSMs 	0
scalar MyScenario.node[179].appl 	receivedWSMs 	0
scalar MyScenario.node[179].appl 	generatedBSMs 	0
scalar MyScenario.node[179].appl 	receivedBSMs 	0
scalar MyScenario.node[179].appl 	generatedWSAs 	0
scalar MyScenario.node[179].appl 	receivedWSAs 	0
scalar MyScenario.node[179].nic.phy80211p 	busyTime 	8.7e-05
scalar MyScenario.node[179].nic.mac1609_4 	ReceivedUnicastPackets 	0
scalar MyScenario.node[179].nic.mac1609_4 	ReceivedBroadcasts 	0
scalar MyScenario.node[179].nic.mac1609_4 	SentPackets 	0
scalar MyScenario.node[179].nic.mac1609_4 	SNIRLostPackets 	15
scalar MyScenario.node[179].nic.mac1609_4 	RXTXLostPackets 	0
scalar MyScenario.node[179].nic.mac1609_4 	TotalLostPackets 	15
scalar MyScenario.node[179].nic.mac1609_4 	DroppedPacketsInMac 	0
scalar MyScenario.node[179].nic.mac1609_4 	TooLittleTime 	0
scalar MyScenario.node[179].nic.mac1609_4 	TimesIntoBackoff 	0
scalar MyScenario.node[179].nic.mac1609_4 	SlotsBackoff 	0
scalar MyScenario.node[179].nic.mac1609_4 	NumInternalContention 	0
scalar MyScenario.node[179].nic.mac1609_4 	totalBusyTime 	0.000696
scalar MyScenario.node[179].veinsmobility 	startTime 	1
scalar MyScenario.node[179].veinsmobility 	totalTime 	39
scalar MyScenario.node[179].veinsmobility 	stopTime 	41
scalar MyScenario.node[179].veinsmobility 	minSpeed 	2.3666962741874
scalar MyScenario.node[179].veinsmobility 	maxSpeed 	13.890401820489
scalar MyScenario.node[179].veinsmobility 	totalDistance 	485.0164538445
scalar MyScenario.node[179].veinsmobility 	totalCO2Emission 	105.07076142379
scalar MyScenario.node[48].appl 	generatedWSMs 	0
scalar MyScenario.node[48].appl 	receivedWSMs 	0
scalar MyScenario.node[48].appl 	generatedBSMs 	0
scalar MyScenario.node[48].appl 	receivedBSMs 	0
scalar MyScenario.node[48].appl 	generatedWSAs 	0
scalar MyScenario.node[48].appl 	receivedWSAs 	0
scalar MyScenario.node[48].nic.phy80211p 	busyTime 	1.1317073170732e-05
scalar MyScenario.node[48].nic.mac1609_4 	ReceivedUnicastPackets 	0
scalar MyScenario.node[48].nic.mac1609_4 	ReceivedBroadcasts 	0
scalar MyScenario.node[48].nic.mac1609_4 	SentPackets 	0
scalar MyScenario.node[48].nic.mac1609_4 	SNIRLostPackets 	2
scalar MyScenario.node[48].nic.mac1609_4 	RXTXLostPackets 	0
scalar MyScenario.node[48].nic.mac1609_4 	TotalLostPackets 	2
scalar MyScenario.node[48].nic.mac1609_4 	DroppedPacketsInMac 	0
scalar MyScenario.node[48].nic.mac1609_4 	TooLittleTime 	0
scalar MyScenario.node[48].nic.mac1609_4 	TimesIntoBackoff 	0
scalar MyScenario.node[48].nic.mac1609_4 	SlotsBackoff 	0
scalar MyScenario.node[48].nic.mac1609_4 	NumInternalContention 	0
scalar MyScenario.node[48].nic.mac1609_4 	totalBusyTime 	0.000232
scalar MyScenario.node[48].veinsmobility 	startTime 	1
scalar MyScenario.node[48].veinsmobility 	totalTime 	40
scalar MyScenario.node[48].veinsmobility 	stopTime 	42
scalar MyScenario.node[48].veinsmobility 	minSpeed 	1.7151381461881
scalar MyScenario.node[48].veinsmobility 	maxSpeed 	13.841791195353
scalar MyScenario.node[48].veinsmobility 	totalDistance 	472.35693895169
scalar MyScenario.node[48].veinsmobility 	totalCO2Emission 	122.31437379208
scalar MyScenario.node[64].appl 	generatedWSMs 	1
scalar MyScenario.node[64].appl 	receivedWSMs 	12
scalar MyScenario.node[64].appl 	generatedBSMs 	0
scalar MyScenario.node[64].appl 	receivedBSMs 	0
scalar MyScenario.node[64].appl 	generatedWSAs 	0
scalar MyScenario.node[64].appl 	receivedWSAs 	0
scalar MyScenario.node[64].nic.phy80211p 	busyTime 	0.00028055813953488
scalar MyScenario.node[64].nic.mac1609_4 	ReceivedUnicastPackets 	0
scalar MyScenario.node[64].nic.mac1609_4 	ReceivedBroadcasts 	12
scalar MyScenario.node[64].nic.mac1609_4 	SentPackets 	1
scalar MyScenario.node[64].nic.mac1609_4 	SNIRLostPackets 	40
scalar MyScenario.node[64].nic.mac1609_4 	RXTXLostPackets 	2
scalar MyScenario.node[64].nic.mac1609_4 	TotalLostPackets 	42
scalar MyScenario.node[64].nic.mac1609_4 	DroppedPacketsInMac 	0
scalar MyScenario.node[64].nic.mac1609_4 	TooLittleTime 	0
scalar MyScenario.node[64].nic.mac1609_4 	TimesIntoBackoff 	1
scalar MyScenario.node[64].nic.mac1609_4 	SlotsBackoff 	2
scalar MyScenario.node[64].nic.mac1609_4 	NumInternalContention 	0
scalar MyScenario.node[64].nic.mac1609_4 	totalBusyTime 	0.004873
scalar MyScenario.node[64].veinsmobility 	startTime 	1
scalar MyScenario.node[64].veinsmobility 	totalTime 	42
scalar MyScenario.node[64].veinsmobility 	stopTime 	44
scalar MyScenario.node[64].veinsmobility 	minSpeed 	1.9049148673192
scalar MyScenario.node[64].veinsmobility 	maxSpeed 	13.795952103846
scalar MyScenario.node[64].veinsmobility 	totalDistance 	469.71104161844
scalar MyScenario.node[64].veinsmobility 	totalCO2Emission 	137.96848873846
scalar MyScenario.node[11].appl 	generatedWSMs 	1
scalar MyScenario.node[11].appl 	receivedWSMs 	1
scalar MyScenario.node[11].appl 	generatedBSMs 	0
scalar MyScenario.node[11].appl 	receivedBSMs 	0
scalar MyScenario.node[11].appl 	generatedWSAs 	0
scalar MyScenario.node[11].appl 	receivedWSAs 	0
scalar MyScenario.node[11].nic.phy80211p 	busyTime 	3.6909090909091e-05
scalar MyScenario.node[11].nic.mac1609_4 	ReceivedUnicastPackets 	0
scalar MyScenario.node[11].nic.mac1609_4 	ReceivedBroadcasts 	1
scalar MyScenario.node[11].nic.mac1609_4 	SentPackets 	1
scalar MyScenario.node[11].nic.mac1609_4 	SNIRLostPackets 	6
scalar MyScenario.node[11].nic.mac1609_4 	RXTXLostPackets 	3
scalar MyScenario.node[11].nic.mac1609_4 	TotalLostPackets 	9
scalar MyScenario.node[11].nic.mac1609_4 	DroppedPacketsInMac 	0
scalar MyScenario.node[11].nic.mac1609_4 	TooLittleTime 	0
scalar MyScenario.node[11].nic.mac1609_4 	TimesIntoBackoff 	1
scalar MyScenario.node[11].nic.mac1609_4 	SlotsBackoff 	1
scalar MyScenario.node[11].nic.mac1609_4 	NumInternalContention 	0
scalar MyScenario.node[11].nic.mac1609_4 	totalBusyTime 	0.000697043803
scalar MyScenario.node[11].veinsmobility 	startTime 	1
scalar MyScenario.node[11].veinsmobility 	totalTime 	43
scalar MyScenario.node[11].veinsmobility 	stopTime 	45
scalar MyScenario.node[11].veinsmobility 	minSpeed 	2.2344685444143
scalar MyScenario.node[11].veinsmobility 	maxSpeed 	13.740785318124
scalar MyScenario.node[11].veinsmobility 	totalDistance 	466.01639794274
scalar MyScenario.node[11].veinsmobility 	totalCO2Emission 	158.01724964651
scalar MyScenario.node[43].appl 	generatedWSMs 	0
scalar MyScenario.node[43].appl 	receivedWSMs 	0
scalar MyScenario.node[43].appl 	generatedBSMs 	0
scalar MyScenario.node[43].appl 	receivedBSMs 	0
scalar MyScenario.node[43].appl 	generatedWSAs 	0
scalar MyScenario.node[43].appl 	receivedWSAs 	0
scalar MyScenario.node[43].nic.phy80211p 	busyTime 	0
scalar MyScenario.node[43].nic.mac1609_4 	ReceivedUnicastPackets 	0
scalar MyScenario.node[43].nic.mac1609_4 	ReceivedBroadcasts 	0
scalar MyScenario.node[43].nic.mac1609_4 	SentPackets 	0
scalar MyScenario.node[43].nic.mac1609_4 	SNIRLostPackets 	0
scalar MyScenario.node[43].nic.mac1609_4 	RXTXLostPackets 	0
scalar MyScenario.node[43].nic.mac1609_4 	TotalLostPackets 	0
scalar MyScenario.node[43].nic.mac1609_4 	DroppedPacketsInMac 	0
scalar MyScenario.node[43].nic.mac1609_4 	TooLittleTime 	0
scalar MyScenario.node[43].nic.mac1609_4 	TimesIntoBackoff 	0
scalar MyScenario.node[43].nic.mac1609_4 	SlotsBackoff 	0
scalar MyScenario.node[43].nic.mac1609_4 	NumInternalContention 	0
scalar MyScenario.node[43].nic.mac1609_4 	totalBusyTime 	0
scalar MyScenario.node[43].veinsmobility 	startTime 	1
scalar MyScenario.node[43].veinsmobility 	totalTime 	43
scalar MyScenario.node[43].veinsmobility 	stopTime 	45
scalar MyScenario.node[43].veinsmobility 	minSpeed 	1.893450317625
scalar MyScenario.node[43].veinsmobility 	maxSpeed 	13.892648668308
scalar MyScenario.node[43].veinsmobility 	totalDistance 	475.28217589602
scalar MyScenario.node[43].veinsmobility 	totalCO2Emission 	136.54737387096
scalar MyScenario.node[60].appl 	generatedWSMs 	0
scalar MyScenario.node[60].appl 	receivedWSMs 	0
scalar MyScenario.node[60].appl 	generatedBSMs 	0
scalar MyScenario.node[60].appl 	receivedBSMs 	0
scalar MyScenario.node[60].appl 	generatedWSAs 	0
scalar MyScenario.node[60].appl 	receivedWSAs 	0
scalar MyScenario.node[60].nic.phy80211p 	busyTime 	5.2727272727273e-05
scalar MyScenario.node[60].nic.mac1609_4 	ReceivedUnicastPackets 	0
scalar MyScenario.node[60].nic.mac1609_4 	ReceivedBroadcasts 	0
scalar MyScenario.node[60].nic.mac1609_4 	SentPackets 	0
scalar MyScenario.node[60].nic.mac1609_4 	SNIRLostPackets 	10
scalar MyScenario.node[60].nic.mac1609_4 	RXTXLostPackets 	0
scalar MyScenario.node[60].nic.mac1609_4 	TotalLostPackets 	10
scalar MyScenario.node[60].nic.mac1609_4 	DroppedPacketsInMac 	0
scalar MyScenario.node[60].nic.mac1609_4 	TooLittleTime 	0
scalar MyScenario.node[60].nic.mac1609_4 	TimesIntoBackoff 	0
scalar MyScenario.node[60].nic.mac1609_4 	SlotsBackoff 	0
scalar MyScenario.node[60].nic.mac1609_4 	NumInternalContention 	0
scalar MyScenario.node[60].nic.mac1609_4 	totalBusyTime 	0.000696
scalar MyScenario.node[60].veinsmobility 	startTime 	1
scalar MyScenario.node[60].veinsmobility 	totalTime 	43
scalar MyScenario.node[60].veinsmobility 	stopTime 	45
scalar MyScenario.node[60].veinsmobility 	minSpeed 	1.8100266953232
scalar MyScenario.node[60].veinsmobility 	maxSpeed 	13.894667551294
scalar MyScenario.node[60].veinsmobility 	totalDistance 	481.20759056418
scalar MyScenario.node[60].veinsmobility 	totalCO2Emission 	129.43767485036
scalar MyScenario.node[153].appl 	generatedWSMs 	1
scalar MyScenario.node[153].appl 	receivedWSMs 	13
scalar MyScenario.node[153].appl 	generatedBSMs 	0
scalar MyScenario.node[153].appl 	receivedBSMs 	0
scalar MyScenario.node[153].appl 	generatedWSAs 	0
scalar MyScenario.node[153].appl 	receivedWSAs 	0
scalar MyScenario.node[153].nic.phy80211p 	busyTime 	0.00024746666666667
scalar MyScenario.node[153].nic.mac1609_4 	ReceivedUnicastPackets 	0
scalar MyScenario.node[153].nic.mac1609_4 	ReceivedBroadcasts 	13
scalar MyScenario.node[153].nic.mac1609_4 	SentPackets 	1
scalar MyScenario.node[153].nic.mac1609_4 	SNIRLostPackets 	35
scalar MyScenario.node[153].nic.mac1609_4 	RXTXLostPackets 	9
scalar MyScenario.node[153].nic.mac1609_4 	TotalLostPackets 	44
scalar MyScenario.node[153].nic.mac1609_4 	DroppedPacketsInMac 	0
scalar MyScenario.node[153].nic.mac1609_4 	TooLittleTime 	0
scalar MyScenario.node[153].nic.mac1609_4 	TimesIntoBackoff 	1
scalar MyScenario.node[153].nic.mac1609_4 	SlotsBackoff 	2
scalar MyScenario.node[153].nic.mac1609_4 	NumInternalContention 	0
scalar MyScenario.node[153].nic.mac1609_4 	totalBusyTime 	0.003945007705
scalar MyScenario.node[153].veinsmobility 	startTime 	1
scalar MyScenario.node[153].veinsmobility 	totalTime 	44
scalar MyScenario.node[153].veinsmobility 	stopTime 	46
scalar MyScenario.node[153].veinsmobility 	minSpeed 	1.5299535016296
scalar MyScenario.node[153].veinsmobility 	maxSpeed 	13.87624057536
scalar MyScenario.node[153].veinsmobility 	totalDistance 	466.25776030491
scalar MyScenario.node[153].veinsmobility 	totalCO2Emission 	159.08144534211
scalar MyScenario.node[286].appl 	generatedWSMs 	0
scalar MyScenario.node[286].appl 	receivedWSMs 	0
scalar MyScenario.node[286].appl 	generatedBSMs 	0
scalar MyScenario.node[286].appl 	receivedBSMs 	0
scalar MyScenario.node[286].appl 	generatedWSAs 	0
scalar MyScenario.node[286].appl 	receivedWSAs 	0
scalar MyScenario.node[286].nic.phy80211p 	busyTime 	5.8e-06
scalar MyScenario.node[286].nic.mac1609_4 	ReceivedUnicastPackets 	0
scalar MyScenario.node[286].nic.mac1609_4 	ReceivedBroadcasts 	0
scalar MyScenario.node[286].nic.mac1609_4 	SentPackets 	0
scalar MyScenario.node[286].nic.mac1609_4 	SNIRLostPackets 	1
scalar MyScenario.node[286].nic.mac1609_4 	RXTXLostPackets 	0
scalar MyScenario.node[286].nic.mac1609_4 	TotalLostPackets 	1
scalar MyScenario.node[286].nic.mac1609_4 	DroppedPacketsInMac 	0
scalar MyScenario.node[286].nic.mac1609_4 	TooLittleTime 	0
scalar MyScenario.node[286].nic.mac1609_4 	TimesIntoBackoff 	0
scalar MyScenario.node[286].nic.mac1609_4 	SlotsBackoff 	0
scalar MyScenario.node[286].nic.mac1609_4 	NumInternalContention 	0
scalar MyScenario.node[286].nic.mac1609_4 	totalBusyTime 	0.000232
scalar MyScenario.node[286].veinsmobility 	startTime 	7
scalar MyScenario.node[286].veinsmobility 	totalTime 	39
scalar MyScenario.node[286].veinsmobility 	stopTime 	47
scalar MyScenario.node[286].veinsmobility 	minSpeed 	0.68909841817847
scalar MyScenario.node[286].veinsmobility 	maxSpeed 	13.856092381477
scalar MyScenario.node[286].veinsmobility 	totalDistance 	372.31988178574
scalar MyScenario.node[286].veinsmobility 	totalCO2Emission 	131.44071903499
scalar MyScenario.node[145].appl 	generatedWSMs 	0
scalar MyScenario.node[145].appl 	receivedWSMs 	0
scalar MyScenario.node[145].appl 	generatedBSMs 	0
scalar MyScenario.node[145].appl 	receivedBSMs 	0
scalar MyScenario.node[145].appl 	generatedWSAs 	0
scalar MyScenario.node[145].appl 	receivedWSAs 	0
scalar MyScenario.node[145].nic.phy80211p 	busyTime 	0
scalar MyScenario.node[145].nic.mac1609_4 	ReceivedUnicastPackets 	0
scalar MyScenario.node[145].nic.mac1609_4 	ReceivedBroadcasts 	0
scalar MyScenario.node[145].nic.mac1609_4 	SentPackets 	0
scalar MyScenario.node[145].nic.mac1609_4 	SNIRLostPackets 	0
scalar MyScenario.node[145].nic.mac1609_4 	RXTXLostPackets 	0
scalar MyScenario.node[145].nic.mac1609_4 	TotalLostPackets 	0
scalar MyScenario.node[145].nic.mac1609_4 	DroppedPacketsInMac 	0
scalar MyScenario.node[145].nic.mac1609_4 	TooLittleTime 	0
scalar MyScenario.node[145].nic.mac1609_4 	TimesIntoBackoff 	0
scalar MyScenario.node[145].nic.mac1609_4 	SlotsBackoff 	0
scalar MyScenario.node[145].nic.mac1609_4 	NumInternalContention 	0
scalar MyScenario.node[145].nic.mac1609_4 	totalBusyTime 	0
scalar MyScenario.node[145].veinsmobility 	startTime 	1
scalar MyScenario.node[145].veinsmobility 	totalTime 	46
scalar MyScenario.node[145].veinsmobility 	stopTime 	48
scalar MyScenario.node[145].veinsmobility 	minSpeed 	1.4999527401259
scalar MyScenario.node[145].veinsmobility 	maxSpeed 	13.896168905031
scalar MyScenario.node[145].veinsmobility 	totalDistance 	472.79931242815
scalar MyScenario.node[145].veinsmobility 	totalCO2Emission 	142.01300683432
scalar MyScenario.node[274].appl 	generatedWSMs 	1
scalar MyScenario.node[274].appl 	receivedWSMs 	2
scalar MyScenario.node[274].appl 	generatedBSMs 	0
scalar MyScenario.node[274].appl 	receivedBSMs 	0
scalar MyScenario.node[274].appl 	generatedWSAs 	0
scalar MyScenario.node[274].appl 	receivedWSAs 	0
scalar MyScenario.node[274].nic.phy80211p 	busyTime 	0.00013181818181818
scalar MyScenario.node[274].nic.mac1609_4 	ReceivedUnicastPackets 	0
scalar MyScenario.node[274].nic.mac1609_4 	ReceivedBroadcasts 	2
scalar MyScenario.node[274].nic.mac1609_4 	SentPackets 	1
scalar MyScenario.node[274].nic.mac1609_4 	SNIRLostPackets 	23
scalar MyScenario.node[274].nic.mac1609_4 	RXTXLostPackets 	1
scalar MyScenario.node[274].nic.mac1609_4 	TotalLostPackets 	24
scalar MyScenario.node[274].nic.mac1609_4 	DroppedPacketsInMac 	0
scalar MyScenario.node[274].nic.mac1609_4 	TooLittleTime 	0
scalar MyScenario.node[274].nic.mac1609_4 	TimesIntoBackoff 	1
scalar MyScenario.node[274].nic.mac1609_4 	SlotsBackoff 	2
scalar MyScenario.node[274].nic.mac1609_4 	NumInternalContention 	0
scalar MyScenario.node[274].nic.mac1609_4 	totalBusyTime 	0.001857
scalar MyScenario.node[274].veinsmobility 	startTime 	4
scalar MyScenario.node[274].veinsmobility 	totalTime 	43
scalar MyScenario.node[274].veinsmobility 	stopTime 	48
scalar MyScenario.node[274].veinsmobility 	minSpeed 	1.3227810653392
scalar MyScenario.node[274].veinsmobility 	maxSpeed 	13.761734658014
scalar MyScenario.node[274].veinsmobility 	totalDistance 	483.78261541754
scalar MyScenario.node[274].veinsmobility 	totalCO2Emission 	123.00265507934
scalar MyScenario.node[186].appl 	generatedWSMs 	1
scalar MyScenario.node[186].appl 	receivedWSMs 	1
scalar MyScenario.node[186].appl 	generatedBSMs 	0
scalar MyScenario.node[186].appl 	receivedBSMs 	0
scalar MyScenario.node[186].appl 	generatedWSAs 	0
scalar MyScenario.node[186].appl 	receivedWSAs 	0
scalar MyScenario.node[186].nic.phy80211p 	busyTime 	3.3833333333333e-05
scalar MyScenario.node[186].nic.mac1609_4 	ReceivedUnicastPackets 	0
scalar MyScenario.node[186].nic.mac1609_4 	ReceivedBroadcasts 	1
scalar MyScenario.node[186].nic.mac1609_4 	SentPackets 	1
scalar MyScenario.node[186].nic.mac1609_4 	SNIRLostPackets 	6
scalar MyScenario.node[186].nic.mac1609_4 	RXTXLostPackets 	15
scalar MyScenario.node[186].nic.mac1609_4 	TotalLostPackets 	21
scalar MyScenario.node[186].nic.mac1609_4 	DroppedPacketsInMac 	0
scalar MyScenario.node[186].nic.mac1609_4 	TooLittleTime 	0
scalar MyScenario.node[186].nic.mac1609_4 	TimesIntoBackoff 	1
scalar MyScenario.node[186].nic.mac1609_4 	SlotsBackoff 	1
scalar MyScenario.node[186].nic.mac1609_4 	NumInternalContention 	0
scalar MyScenario.node[186].nic.mac1609_4 	totalBusyTime 	0.001393122582
scalar MyScenario.node[186].veinsmobility 	startTime 	1
scalar MyScenario.node[186].veinsmobility 	totalTime 	47
scalar MyScenario.node[186].veinsmobility 	stopTime 	49
scalar MyScenario.node[186].veinsmobility 	minSpeed 	2.5510176528478
scalar MyScenario.node[186].veinsmobility 	maxSpeed 	13.844675996015
scalar MyScenario.node[186].veinsmobility 	totalDistance 	553.53838815999
scalar MyScenario.node[186].veinsmobility 	totalCO2Emission 	149.95538780703
scalar MyScenario.node[195].appl 	generatedWSMs 	0
scalar MyScenario.node[195].appl 	receivedWSMs 	0
scalar MyScenario.node[195].appl 	generatedBSMs 	0
scalar MyScenario.node[195].appl 	receivedBSMs 	0
scalar MyScenario.node[195].appl 	generatedWSAs 	0
scalar MyScenario.node[195].appl 	receivedWSAs 	0
scalar MyScenario.node[195].nic.phy80211p 	busyTime 	2.3673469387755e-05
scalar MyScenario.node[195].nic.mac1609_4 	ReceivedUnicastPackets 	0
scalar MyScenario.node[195].nic.mac1609_4 	ReceivedBroadcasts 	0
scalar MyScenario.node[195].nic.mac1609_4 	SentPackets 	0
scalar MyScenario.node[195].nic.mac1609_4 	SNIRLostPackets 	5
scalar MyScenario.node[195].nic.mac1609_4 	RXTXLostPackets 	0
scalar MyScenario.node[195].nic.mac1609_4 	TotalLostPackets 	5
scalar MyScenario.node[195].nic.mac1609_4 	DroppedPacketsInMac 	0
scalar MyScenario.node[195].nic.mac1609_4 	TooLittleTime 	0
scalar MyScenario.node[195].nic.mac1609_4 	TimesIntoBackoff 	0
scalar MyScenario.node[195].nic.mac1609_4 	SlotsBackoff 	0
scalar MyScenario.node[195].nic.mac1609_4 	NumInternalContention 	0
scalar MyScenario.node[195].nic.mac1609_4 	totalBusyTime 	0.000464
scalar MyScenario.node[195].veinsmobility 	startTime 	1
scalar MyScenario.node[195].veinsmobility 	totalTime 	48
scalar MyScenario.node[195].veinsmobility 	stopTime 	50
scalar MyScenario.node[195].veinsmobility 	minSpeed 	2.1478757349774
scalar MyScenario.node[195].veinsmobility 	maxSpeed 	13.896637917426
scalar MyScenario.node[195].veinsmobility 	totalDistance 	572.51563944151
scalar MyScenario.node[195].veinsmobility 	totalCO2Emission 	137.39060895492
scalar MyScenario.node[4].appl 	generatedWSMs 	1
scalar MyScenario.node[4].appl 	receivedWSMs 	4
scalar MyScenario.node[4].appl 	generatedBSMs 	0
scalar MyScenario.node[4].appl 	receivedBSMs 	0
scalar MyScenario.node[4].appl 	generatedWSAs 	0
scalar MyScenario.node[4].appl 	receivedWSAs 	0
scalar MyScenario.node[4].nic.phy80211p 	busyTime 	5.568e-05
scalar MyScenario.node[4].nic.mac1609_4 	ReceivedUnicastPackets 	0
scalar MyScenario.node[4].nic.mac1609_4 	ReceivedBroadcasts 	4
scalar MyScenario.node[4].nic.mac1609_4 	SentPackets 	1
scalar MyScenario.node[4].nic.mac1609_4 	SNIRLostPackets 	8
scalar MyScenario.node[4].nic.mac1609_4 	RXTXLostPackets 	9
scalar MyScenario.node[4].nic.mac1609_4 	TotalLostPackets 	17
scalar MyScenario.node[4].nic.mac1609_4 	DroppedPacketsInMac 	0
scalar MyScenario.node[4].nic.mac1609_4 	TooLittleTime 	0
scalar MyScenario.node[4].nic.mac1609_4 	TimesIntoBackoff 	1
scalar MyScenario.node[4].nic.mac1609_4 	SlotsBackoff 	1
scalar MyScenario.node[4].nic.mac1609_4 	NumInternalContention 	0
scalar MyScenario.node[4].nic.mac1609_4 	totalBusyTime 	0.0013930921
scalar MyScenario.node[4].veinsmobility 	startTime 	1
scalar MyScenario.node[4].veinsmobility 	totalTime 	49
scalar MyScenario.node[4].veinsmobility 	stopTime 	51
scalar MyScenario.node[4].veinsmobility 	minSpeed 	1.4623387164436
scalar MyScenario.node[4].veinsmobility 	maxSpeed 	13.896698243939
scalar MyScenario.node[4].veinsmobility 	totalDistance 	566.58558971914
scalar MyScenario.node[4].veinsmobility 	totalCO2Emission 	155.25652708331
scalar MyScenario.node[221].appl 	generatedWSMs 	0
scalar MyScenario.node[221].appl 	receivedWSMs 	0
scalar MyScenario.node[221].appl 	generatedBSMs 	0
scalar MyScenario.node[221].appl 	receivedBSMs 	0
scalar MyScenario.node[221].appl 	generatedWSAs 	0
scalar MyScenario.node[221].appl 	receivedWSAs 	0
scalar MyScenario.node[221].nic.phy80211p 	busyTime 	0
scalar MyScenario.node[221].nic.mac1609_4 	ReceivedUnicastPackets 	0
scalar MyScenario.node[221].nic.mac1609_4 	ReceivedBroadcasts 	0
scalar MyScenario.node[221].nic.mac1609_4 	SentPackets 	0
scalar MyScenario.node[221].nic.mac1609_4 	SNIRLostPackets 	0
scalar MyScenario.node[221].nic.mac1609_4 	RXTXLostPackets 	0
scalar MyScenario.node[221].nic.mac1609_4 	TotalLostPackets 	0
scalar MyScenario.node[221].nic.mac1609_4 	DroppedPacketsInMac 	0
scalar MyScenario.node[221].nic.mac1609_4 	TooLittleTime 	0
scalar MyScenario.node[221].nic.mac1609_4 	TimesIntoBackoff 	0
scalar MyScenario.node[221].nic.mac1609_4 	SlotsBackoff 	0
scalar MyScenario.node[221].nic.mac1609_4 	NumInternalContention 	0
scalar MyScenario.node[221].nic.mac1609_4 	totalBusyTime 	0
scalar MyScenario.node[221].veinsmobility 	startTime 	4
scalar MyScenario.node[221].veinsmobility 	totalTime 	46
scalar MyScenario.node[221].veinsmobility 	stopTime 	51
scalar MyScenario.node[221].veinsmobility 	minSpeed 	0.85843138499193
scalar MyScenario.node[221].veinsmobility 	maxSpeed 	13.859234856511
scalar MyScenario.node[221].veinsmobility 	totalDistance 	463.96543881692
scalar MyScenario.node[221].veinsmobility 	totalCO2Emission 	150.54969741696
scalar MyScenario.node[46].appl 	generatedWSMs 	0
scalar MyScenario.node[46].appl 	receivedWSMs 	0
scalar MyScenario.node[46].appl 	generatedBSMs 	0
scalar MyScenario.node[46].appl 	receivedBSMs 	0
scalar MyScenario.node[46].appl 	generatedWSAs 	0
scalar MyScenario.node[46].appl 	receivedWSAs 	0
scalar MyScenario.node[46].nic.phy80211p 	busyTime 	0
scalar MyScenario.node[46].nic.mac1609_4 	ReceivedUnicastPackets 	0
scalar MyScenario.node[46].nic.mac1609_4 	ReceivedBroadcasts 	0
scalar MyScenario.node[46].nic.mac1609_4 	SentPackets 	0
scalar MyScenario.node[46].nic.mac1609_4 	SNIRLostPackets 	0
scalar MyScenario.node[46].nic.mac1609_4 	RXTXLostPackets 	0
scalar MyScenario.node[46].nic.mac1609_4 	TotalLostPackets 	0
scalar MyScenario.node[46].nic.mac1609_4 	DroppedPacketsInMac 	0
scalar MyScenario.node[46].nic.mac1609_4 	TooLittleTime 	0
scalar MyScenario.node[46].nic.mac1609_4 	TimesIntoBackoff 	0
scalar MyScenario.node[46].nic.mac1609_4 	SlotsBackoff 	0
scalar MyScenario.node[46].nic.mac1609_4 	NumInternalContention 	0
scalar MyScenario.node[46].nic.mac1609_4 	totalBusyTime 	0
scalar MyScenario.node[46].veinsmobility 	startTime 	1
scalar MyScenario.node[46].veinsmobility 	totalTime 	49
scalar MyScenario.node[46].veinsmobility 	stopTime 	51
scalar MyScenario.node[46].veinsmobility 	minSpeed 	1.9251528741792
scalar MyScenario.node[46].veinsmobility 	maxSpeed 	13.854084820836
scalar MyScenario.node[46].veinsmobility 	totalDistance 	574.17046338882
scalar MyScenario.node[46].veinsmobility 	totalCO2Emission 	144.1557841311
scalar MyScenario.node[261].appl 	generatedWSMs 	0
scalar MyScenario.node[261].appl 	receivedWSMs 	0
scalar MyScenario.node[261].appl 	generatedBSMs 	0
scalar MyScenario.node[261].appl 	receivedBSMs 	0
scalar MyScenario.node[261].appl 	generatedWSAs 	0
scalar MyScenario.node[261].appl 	receivedWSAs 	0
scalar MyScenario.node[261].nic.phy80211p 	busyTime 	0
scalar MyScenario.node[261].nic.mac1609_4 	ReceivedUnicastPackets 	0
scalar MyScenario.node[261].nic.mac1609_4 	ReceivedBroadcasts 	0
scalar MyScenario.node[261].nic.mac1609_4 	SentPackets 	0
scalar MyScenario.node[261].nic.mac1609_4 	SNIRLostPackets 	0
scalar MyScenario.node[261].nic.mac1609_4 	RXTXLostPackets 	0
scalar MyScenario.node[261].nic.mac1609_4 	TotalLostPackets 	0
scalar MyScenario.node[261].nic.mac1609_4 	DroppedPacketsInMac 	0
scalar MyScenario.node[261].nic.mac1609_4 	TooLittleTime 	0
scalar MyScenario.node[261].nic.mac1609_4 	TimesIntoBackoff 	0
scalar MyScenario.node[261].nic.mac1609_4 	SlotsBackoff 	0
scalar MyScenario.node[261].nic.mac1609_4 	NumInternalContention 	0
scalar MyScenario.node[261].nic.mac1609_4 	totalBusyTime 	0
scalar MyScenario.node[261].veinsmobility 	startTime 	4
scalar MyScenario.node[261].veinsmobility 	totalTime 	47
scalar MyScenario.node[261].veinsmobility 	stopTime 	52
scalar MyScenario.node[261].veinsmobility 	minSpeed 	0.00089445370703296
scalar MyScenario.node[261].veinsmobility 	maxSpeed 	13.877300238097
scalar MyScenario.node[261].veinsmobility 	totalDistance 	376.10055361702
scalar MyScenario.node[261].veinsmobility 	totalCO2Emission 	155.65394235905
scalar MyScenario.node[183].appl 	generatedWSMs 	1
scalar MyScenario.node[183].appl 	receivedWSMs 	6
scalar MyScenario.node[183].appl 	generatedBSMs 	0
scalar MyScenario.node[183].appl 	receivedBSMs 	0
scalar MyScenario.node[183].appl 	generatedWSAs 	0
scalar MyScenario.node[183].appl 	receivedWSAs 	0
scalar MyScenario.node[183].nic.phy80211p 	busyTime 	0.00012737254901961
scalar MyScenario.node[183].nic.mac1609_4 	ReceivedUnicastPackets 	0
scalar MyScenario.node[183].nic.mac1609_4 	ReceivedBroadcasts 	6
scalar MyScenario.node[183].nic.mac1609_4 	SentPackets 	1
scalar MyScenario.node[183].nic.mac1609_4 	SNIRLostPackets 	22
scalar MyScenario.node[183].nic.mac1609_4 	RXTXLostPackets 	16
scalar MyScenario.node[183].nic.mac1609_4 	TotalLostPackets 	38
scalar MyScenario.node[183].nic.mac1609_4 	DroppedPacketsInMac 	0
scalar MyScenario.node[183].nic.mac1609_4 	TooLittleTime 	0
scalar MyScenario.node[183].nic.mac1609_4 	TimesIntoBackoff 	1
scalar MyScenario.node[183].nic.mac1609_4 	SlotsBackoff 	2
scalar MyScenario.node[183].nic.mac1609_4 	NumInternalContention 	0
scalar MyScenario.node[183].nic.mac1609_4 	totalBusyTime 	0.002785072072
scalar MyScenario.node[183].veinsmobility 	startTime 	1
scalar MyScenario.node[183].veinsmobility 	totalTime 	50
scalar MyScenario.node[183].veinsmobility 	stopTime 	52
scalar MyScenario.node[183].veinsmobility 	minSpeed 	2.0969362642383
scalar MyScenario.node[183].veinsmobility 	maxSpeed 	13.886063187732
scalar MyScenario.node[183].veinsmobility 	totalDistance 	560.784438017
scalar MyScenario.node[183].veinsmobility 	totalCO2Emission 	175.42319140622
scalar MyScenario.node[78].appl 	generatedWSMs 	0
scalar MyScenario.node[78].appl 	receivedWSMs 	0
scalar MyScenario.node[78].appl 	generatedBSMs 	0
scalar MyScenario.node[78].appl 	receivedBSMs 	0
scalar MyScenario.node[78].appl 	generatedWSAs 	0
scalar MyScenario.node[78].appl 	receivedWSAs 	0
scalar MyScenario.node[78].nic.phy80211p 	busyTime 	5.0039215686275e-05
scalar MyScenario.node[78].nic.mac1609_4 	ReceivedUnicastPackets 	0
scalar MyScenario.node[78].nic.mac1609_4 	ReceivedBroadcasts 	0
scalar MyScenario.node[78].nic.mac1609_4 	SentPackets 	0
scalar MyScenario.node[78].nic.mac1609_4 	SNIRLostPackets 	11
scalar MyScenario.node[78].nic.mac1609_4 	RXTXLostPackets 	0
scalar MyScenario.node[78].nic.mac1609_4 	TotalLostPackets 	11
scalar MyScenario.node[78].nic.mac1609_4 	DroppedPacketsInMac 	0
scalar MyScenario.node[78].nic.mac1609_4 	TooLittleTime 	0
scalar MyScenario.node[78].nic.mac1609_4 	TimesIntoBackoff 	0
scalar MyScenario.node[78].nic.mac1609_4 	SlotsBackoff 	0
scalar MyScenario.node[78].nic.mac1609_4 	NumInternalContention 	0
scalar MyScenario.node[78].nic.mac1609_4 	totalBusyTime 	0.000464
scalar MyScenario.node[78].veinsmobility 	startTime 	1
scalar MyScenario.node[78].veinsmobility 	totalTime 	50
scalar MyScenario.node[78].veinsmobility 	stopTime 	52
scalar MyScenario.node[78].veinsmobility 	minSpeed 	2.4913914639037
scalar MyScenario.node[78].veinsmobility 	maxSpeed 	13.890858630347
scalar MyScenario.node[78].veinsmobility 	totalDistance 	585.80014528946
scalar MyScenario.node[78].veinsmobility 	totalCO2Emission 	155.31495565151
scalar MyScenario.node[271].appl 	generatedWSMs 	0
scalar MyScenario.node[271].appl 	receivedWSMs 	0
scalar MyScenario.node[271].appl 	generatedBSMs 	0
scalar MyScenario.node[271].appl 	receivedBSMs 	0
scalar MyScenario.node[271].appl 	generatedWSAs 	0
scalar MyScenario.node[271].appl 	receivedWSAs 	0
scalar MyScenario.node[271].nic.phy80211p 	busyTime 	0
scalar MyScenario.node[271].nic.mac1609_4 	ReceivedUnicastPackets 	0
scalar MyScenario.node[271].nic.mac1609_4 	ReceivedBroadcasts 	0
scalar MyScenario.node[271].nic.mac1609_4 	SentPackets 	0
scalar MyScenario.node[271].nic.mac1609_4 	SNIRLostPackets 	0
scalar MyScenario.node[271].nic.mac1609_4 	RXTXLostPackets 	0
scalar MyScenario.node[271].nic.mac1609_4 	TotalLostPackets 	0
scalar MyScenario.node[271].nic.mac1609_4 	DroppedPacketsInMac 	0
scalar MyScenario.node[271].nic.mac1609_4 	TooLittleTime 	0
scalar MyScenario.node[271].nic.mac1609_4 	TimesIntoBackoff 	0
scalar MyScenario.node[271].nic.mac1609_4 	SlotsBackoff 	0
scalar MyScenario.node[271].nic.mac1609_4 	NumInternalContention 	0
scalar MyScenario.node[271].nic.mac1609_4 	totalBusyTime 	0
scalar MyScenario.node[271].veinsmobility 	startTime 	4
scalar MyScenario.node[271].veinsmobility 	totalTime 	47
scalar MyScenario.node[271].veinsmobility 	stopTime 	52
scalar MyScenario.node[271].veinsmobility 	minSpeed 	0.51101812512416
scalar MyScenario.node[271].veinsmobility 	maxSpeed 	13.872942417557
scalar MyScenario.node[271].veinsmobility 	totalDistance 	471.75240485503
scalar MyScenario.node[271].veinsmobility 	totalCO2Emission 	151.68663518799
scalar MyScenario.node[72].appl 	generatedWSMs 	0
scalar MyScenario.node[72].appl 	receivedWSMs 	0
scalar MyScenario.node[72].appl 	generatedBSMs 	0
scalar MyScenario.node[72].appl 	receivedBSMs 	0
scalar MyScenario.node[72].appl 	generatedWSAs 	0
scalar MyScenario.node[72].appl 	receivedWSAs 	0
scalar MyScenario.node[72].nic.phy80211p 	busyTime 	4.9076923076923e-05
scalar MyScenario.node[72].nic.mac1609_4 	ReceivedUnicastPackets 	0
scalar MyScenario.node[72].nic.mac1609_4 	ReceivedBroadcasts 	0
scalar MyScenario.node[72].nic.mac1609_4 	SentPackets 	0
scalar MyScenario.node[72].nic.mac1609_4 	SNIRLostPackets 	11
scalar MyScenario.node[72].nic.mac1609_4 	RXTXLostPackets 	0
scalar MyScenario.node[72].nic.mac1609_4 	TotalLostPackets 	11
scalar MyScenario.node[72].nic.mac1609_4 	DroppedPacketsInMac 	0
scalar MyScenario.node[72].nic.mac1609_4 	TooLittleTime 	0
scalar MyScenario.node[72].nic.mac1609_4 	TimesIntoBackoff 	0
scalar MyScenario.node[72].nic.mac1609_4 	SlotsBackoff 	0
scalar MyScenario.node[72].nic.mac1609_4 	NumInternalContention 	0
scalar MyScenario.node[72].nic.mac1609_4 	totalBusyTime 	0.000464
scalar MyScenario.node[72].veinsmobility 	startTime 	1
scalar MyScenario.node[72].veinsmobility 	totalTime 	51
scalar MyScenario.node[72].veinsmobility 	stopTime 	53
scalar MyScenario.node[72].veinsmobility 	minSpeed 	1.4132635534275
scalar MyScenario.node[72].veinsmobility 	maxSpeed 	13.897867511283
scalar MyScenario.node[72].veinsmobility 	totalDistance 	563.7008585792
scalar MyScenario.node[72].veinsmobility 	totalCO2Emission 	169.98021454048
scalar MyScenario.node[210].appl 	generatedWSMs 	0
scalar MyScenario.node[210].appl 	receivedWSMs 	0
scalar MyScenario.node[210].appl 	generatedBSMs 	0
scalar MyScenario.node[210].appl 	receivedBSMs 	0
scalar MyScenario.node[210].appl 	generatedWSAs 	0
scalar MyScenario.node[210].appl 	receivedWSAs 	0
scalar MyScenario.node[210].nic.phy80211p 	busyTime 	5.2081632653061e-05
scalar MyScenario.node[210].nic.mac1609_4 	ReceivedUnicastPackets 	0
scalar MyScenario.node[210].nic.mac1609_4 	ReceivedBroadcasts 	0
scalar MyScenario.node[210].nic.mac1609_4 	SentPackets 	0
scalar MyScenario.node[210].nic.mac1609_4 	SNIRLostPackets 	11
scalar MyScenario.node[210].nic.mac1609_4 	RXTXLostPackets 	0
scalar MyScenario.node[210].nic.mac1609_4 	TotalLostPackets 	11
scalar MyScenario.node[210].nic.mac1609_4 	DroppedPacketsInMac 	0
scalar MyScenario.node[210].nic.mac1609_4 	TooLittleTime 	0
scalar MyScenario.node[210].nic.mac1609_4 	TimesIntoBackoff 	0
scalar MyScenario.node[210].nic.mac1609_4 	SlotsBackoff 	0
scalar MyScenario.node[210].nic.mac1609_4 	NumInternalContention 	0
scalar MyScenario.node[210].nic.mac1609_4 	totalBusyTime 	0.000696
scalar MyScenario.node[210].veinsmobility 	startTime 	4
scalar MyScenario.node[210].veinsmobility 	totalTime 	48
scalar MyScenario.node[210].veinsmobility 	stopTime 	53
scalar MyScenario.node[210].veinsmobility 	minSpeed 	2.0051783250878
scalar MyScenario.node[210].veinsmobility 	maxSpeed 	13.863221567357
scalar MyScenario.node[210].veinsmobility 	totalDistance 	579.20971049725
scalar MyScenario.node[210].veinsmobility 	totalCO2Emission 	136.73888602274
scalar MyScenario.node[0].appl 	generatedWSMs 	18
scalar MyScenario.node[0].appl 	receivedWSMs 	4
scalar MyScenario.node[0].appl 	generatedBSMs 	0
scalar MyScenario.node[0].appl 	receivedBSMs 	0
scalar MyScenario.node[0].appl 	generatedWSAs 	0
scalar MyScenario.node[0].appl 	receivedWSAs 	0
scalar MyScenario.node[0].nic.phy80211p 	busyTime 	0.00029446153846154
scalar MyScenario.node[0].nic.mac1609_4 	ReceivedUnicastPackets 	0
scalar MyScenario.node[0].nic.mac1609_4 	ReceivedBroadcasts 	4
scalar MyScenario.node[0].nic.mac1609_4 	SentPackets 	18
scalar MyScenario.node[0].nic.mac1609_4 	SNIRLostPackets 	62
scalar MyScenario.node[0].nic.mac1609_4 	RXTXLostPackets 	0
scalar MyScenario.node[0].nic.mac1609_4 	TotalLostPackets 	62
scalar MyScenario.node[0].nic.mac1609_4 	DroppedPacketsInMac 	0
scalar MyScenario.node[0].nic.mac1609_4 	TooLittleTime 	0
scalar MyScenario.node[0].nic.mac1609_4 	TimesIntoBackoff 	18
scalar MyScenario.node[0].nic.mac1609_4 	SlotsBackoff 	23
scalar MyScenario.node[0].nic.mac1609_4 	NumInternalContention 	0
scalar MyScenario.node[0].nic.mac1609_4 	totalBusyTime 	0.006746076102
scalar MyScenario.node[0].veinsmobility 	startTime 	1
scalar MyScenario.node[0].veinsmobility 	totalTime 	51
scalar MyScenario.node[0].veinsmobility 	stopTime 	53
scalar MyScenario.node[0].veinsmobility 	minSpeed 	1.3384441748261
scalar MyScenario.node[0].veinsmobility 	maxSpeed 	13.831319676456
scalar MyScenario.node[0].veinsmobility 	totalDistance 	560.02341076687
scalar MyScenario.node[0].veinsmobility 	totalCO2Emission 	181.5977115147
scalar MyScenario.node[273].appl 	generatedWSMs 	0
scalar MyScenario.node[273].appl 	receivedWSMs 	0
scalar MyScenario.node[273].appl 	generatedBSMs 	0
scalar MyScenario.node[273].appl 	receivedBSMs 	0
scalar MyScenario.node[273].appl 	generatedWSAs 	0
scalar MyScenario.node[273].appl 	receivedWSAs 	0
scalar MyScenario.node[273].nic.phy80211p 	busyTime 	0.00011363265306122
scalar MyScenario.node[273].nic.mac1609_4 	ReceivedUnicastPackets 	0
scalar MyScenario.node[273].nic.mac1609_4 	ReceivedBroadcasts 	0
[...]
scalar MyScenario.node[198].nic.mac1609_4 	SNIRLostPackets 	0
scalar MyScenario.node[198].nic.mac1609_4 	RXTXLostPackets 	0
scalar MyScenario.node[198].nic.mac1609_4 	TotalLostPackets 	0
scalar MyScenario.node[198].nic.mac1609_4 	DroppedPacketsInMac 	0
scalar MyScenario.node[198].nic.mac1609_4 	TooLittleTime 	0
scalar MyScenario.node[198].nic.mac1609_4 	TimesIntoBackoff 	0
scalar MyScenario.node[198].nic.mac1609_4 	SlotsBackoff 	0
scalar MyScenario.node[198].nic.mac1609_4 	NumInternalContention 	0
scalar MyScenario.node[198].nic.mac1609_4 	totalBusyTime 	0
scalar MyScenario.node[198].veinsmobility 	startTime 	1
scalar MyScenario.node[198].veinsmobility 	totalTime 	148
scalar MyScenario.node[198].veinsmobility 	stopTime 	150
scalar MyScenario.node[198].veinsmobility 	minSpeed 	1.748456531537e-06
scalar MyScenario.node[198].veinsmobility 	maxSpeed 	13.899178052321
scalar MyScenario.node[198].veinsmobility 	totalDistance 	1262.4468802386
scalar MyScenario.node[198].veinsmobility 	totalCO2Emission 	400.30265361879
scalar MyScenario.node[51].appl 	generatedWSMs 	1
scalar MyScenario.node[51].appl 	receivedWSMs 	2
scalar MyScenario.node[51].appl 	generatedBSMs 	0
scalar MyScenario.node[51].appl 	receivedBSMs 	0
scalar MyScenario.node[51].appl 	generatedWSAs 	0
scalar MyScenario.node[51].appl 	receivedWSAs 	0
scalar MyScenario.node[51].nic.phy80211p 	busyTime 	2.32e-05
scalar MyScenario.node[51].nic.mac1609_4 	ReceivedUnicastPackets 	0
scalar MyScenario.node[51].nic.mac1609_4 	ReceivedBroadcasts 	2
scalar MyScenario.node[51].nic.mac1609_4 	SentPackets 	1
scalar MyScenario.node[51].nic.mac1609_4 	SNIRLostPackets 	13
scalar MyScenario.node[51].nic.mac1609_4 	RXTXLostPackets 	11
scalar MyScenario.node[51].nic.mac1609_4 	TotalLostPackets 	24
scalar MyScenario.node[51].nic.mac1609_4 	DroppedPacketsInMac 	0
scalar MyScenario.node[51].nic.mac1609_4 	TooLittleTime 	0
scalar MyScenario.node[51].nic.mac1609_4 	TimesIntoBackoff 	1
scalar MyScenario.node[51].nic.mac1609_4 	SlotsBackoff 	1
scalar MyScenario.node[51].nic.mac1609_4 	NumInternalContention 	0
scalar MyScenario.node[51].nic.mac1609_4 	totalBusyTime 	0.001625135409
scalar MyScenario.node[51].veinsmobility 	startTime 	1
scalar MyScenario.node[51].veinsmobility 	totalTime 	149
scalar MyScenario.node[51].veinsmobility 	stopTime 	151
scalar MyScenario.node[51].veinsmobility 	minSpeed 	0
scalar MyScenario.node[51].veinsmobility 	maxSpeed 	13.855314171943
scalar MyScenario.node[51].veinsmobility 	totalDistance 	1280.506752635
scalar MyScenario.node[51].veinsmobility 	totalCO2Emission 	429.6893736776
scalar MyScenario.node[37].appl 	generatedWSMs 	0
scalar MyScenario.node[37].appl 	receivedWSMs 	0
scalar MyScenario.node[37].appl 	generatedBSMs 	0
scalar MyScenario.node[37].appl 	receivedBSMs 	0
scalar MyScenario.node[37].appl 	generatedWSAs 	0
scalar MyScenario.node[37].appl 	receivedWSAs 	0
scalar MyScenario.node[37].nic.phy80211p 	busyTime 	1.2210526315789e-05
scalar MyScenario.node[37].nic.mac1609_4 	ReceivedUnicastPackets 	0
scalar MyScenario.node[37].nic.mac1609_4 	ReceivedBroadcasts 	0
scalar MyScenario.node[37].nic.mac1609_4 	SentPackets 	0
scalar MyScenario.node[37].nic.mac1609_4 	SNIRLostPackets 	8
scalar MyScenario.node[37].nic.mac1609_4 	RXTXLostPackets 	0
scalar MyScenario.node[37].nic.mac1609_4 	TotalLostPackets 	8
scalar MyScenario.node[37].nic.mac1609_4 	DroppedPacketsInMac 	0
scalar MyScenario.node[37].nic.mac1609_4 	TooLittleTime 	0
scalar MyScenario.node[37].nic.mac1609_4 	TimesIntoBackoff 	0
scalar MyScenario.node[37].nic.mac1609_4 	SlotsBackoff 	0
scalar MyScenario.node[37].nic.mac1609_4 	NumInternalContention 	0
scalar MyScenario.node[37].nic.mac1609_4 	totalBusyTime 	0.000464
scalar MyScenario.node[37].veinsmobility 	startTime 	1
scalar MyScenario.node[37].veinsmobility 	totalTime 	151
scalar MyScenario.node[37].veinsmobility 	stopTime 	153
scalar MyScenario.node[37].veinsmobility 	minSpeed 	8.7712485659524e-10
scalar MyScenario.node[37].veinsmobility 	maxSpeed 	13.895750643872
scalar MyScenario.node[37].veinsmobility 	totalDistance 	1178.1225975871
scalar MyScenario.node[37].veinsmobility 	totalCO2Emission 	440.37234436126
scalar MyScenario.node[289].appl 	generatedWSMs 	0
scalar MyScenario.node[289].appl 	receivedWSMs 	0
scalar MyScenario.node[289].appl 	generatedBSMs 	0
scalar MyScenario.node[289].appl 	receivedBSMs 	0
scalar MyScenario.node[289].appl 	generatedWSAs 	0
scalar MyScenario.node[289].appl 	receivedWSAs 	0
scalar MyScenario.node[289].nic.phy80211p 	busyTime 	0
scalar MyScenario.node[289].nic.mac1609_4 	ReceivedUnicastPackets 	0
scalar MyScenario.node[289].nic.mac1609_4 	ReceivedBroadcasts 	0
scalar MyScenario.node[289].nic.mac1609_4 	SentPackets 	0
scalar MyScenario.node[289].nic.mac1609_4 	SNIRLostPackets 	0
scalar MyScenario.node[289].nic.mac1609_4 	RXTXLostPackets 	0
scalar MyScenario.node[289].nic.mac1609_4 	TotalLostPackets 	0
scalar MyScenario.node[289].nic.mac1609_4 	DroppedPacketsInMac 	0
scalar MyScenario.node[289].nic.mac1609_4 	TooLittleTime 	0
scalar MyScenario.node[289].nic.mac1609_4 	TimesIntoBackoff 	0
scalar MyScenario.node[289].nic.mac1609_4 	SlotsBackoff 	0
scalar MyScenario.node[289].nic.mac1609_4 	NumInternalContention 	0
scalar MyScenario.node[289].nic.mac1609_4 	totalBusyTime 	0
scalar MyScenario.node[289].veinsmobility 	startTime 	7
scalar MyScenario.node[289].veinsmobility 	totalTime 	146
scalar MyScenario.node[289].veinsmobility 	stopTime 	154
scalar MyScenario.node[289].veinsmobility 	minSpeed 	6.9744237014595e-11
scalar MyScenario.node[289].veinsmobility 	maxSpeed 	13.850599201303
scalar MyScenario.node[289].veinsmobility 	totalDistance 	1061.7353774032
scalar MyScenario.node[289].veinsmobility 	totalCO2Emission 	423.9164503887
scalar MyScenario.node[111].appl 	generatedWSMs 	1
scalar MyScenario.node[111].appl 	receivedWSMs 	2
scalar MyScenario.node[111].appl 	generatedBSMs 	0
scalar MyScenario.node[111].appl 	receivedBSMs 	0
scalar MyScenario.node[111].appl 	generatedWSAs 	0
scalar MyScenario.node[111].appl 	receivedWSAs 	0
scalar MyScenario.node[111].nic.phy80211p 	busyTime 	3.4425806451613e-05
scalar MyScenario.node[111].nic.mac1609_4 	ReceivedUnicastPackets 	0
scalar MyScenario.node[111].nic.mac1609_4 	ReceivedBroadcasts 	2
scalar MyScenario.node[111].nic.mac1609_4 	SentPackets 	1
scalar MyScenario.node[111].nic.mac1609_4 	SNIRLostPackets 	21
scalar MyScenario.node[111].nic.mac1609_4 	RXTXLostPackets 	2
scalar MyScenario.node[111].nic.mac1609_4 	TotalLostPackets 	23
scalar MyScenario.node[111].nic.mac1609_4 	DroppedPacketsInMac 	0
scalar MyScenario.node[111].nic.mac1609_4 	TooLittleTime 	0
scalar MyScenario.node[111].nic.mac1609_4 	TimesIntoBackoff 	1
scalar MyScenario.node[111].nic.mac1609_4 	SlotsBackoff 	3
scalar MyScenario.node[111].nic.mac1609_4 	NumInternalContention 	0
scalar MyScenario.node[111].nic.mac1609_4 	totalBusyTime 	0.002785
scalar MyScenario.node[111].veinsmobility 	startTime 	1
scalar MyScenario.node[111].veinsmobility 	totalTime 	154
scalar MyScenario.node[111].veinsmobility 	stopTime 	156
scalar MyScenario.node[111].veinsmobility 	minSpeed 	2.1008259876864
scalar MyScenario.node[111].veinsmobility 	maxSpeed 	13.898957842146
scalar MyScenario.node[111].veinsmobility 	totalDistance 	1770.1245902853
scalar MyScenario.node[111].veinsmobility 	totalCO2Emission 	503.93698660505
scalar MyScenario.node[298].appl 	generatedWSMs 	0
scalar MyScenario.node[298].appl 	receivedWSMs 	0
scalar MyScenario.node[298].appl 	generatedBSMs 	0
scalar MyScenario.node[298].appl 	receivedBSMs 	0
scalar MyScenario.node[298].appl 	generatedWSAs 	0
scalar MyScenario.node[298].appl 	receivedWSAs 	0
scalar MyScenario.node[298].nic.phy80211p 	busyTime 	6.1456953642384e-06
scalar MyScenario.node[298].nic.mac1609_4 	ReceivedUnicastPackets 	0
scalar MyScenario.node[298].nic.mac1609_4 	ReceivedBroadcasts 	0
scalar MyScenario.node[298].nic.mac1609_4 	SentPackets 	0
scalar MyScenario.node[298].nic.mac1609_4 	SNIRLostPackets 	4
scalar MyScenario.node[298].nic.mac1609_4 	RXTXLostPackets 	0
scalar MyScenario.node[298].nic.mac1609_4 	TotalLostPackets 	4
scalar MyScenario.node[298].nic.mac1609_4 	DroppedPacketsInMac 	0
scalar MyScenario.node[298].nic.mac1609_4 	TooLittleTime 	0
scalar MyScenario.node[298].nic.mac1609_4 	TimesIntoBackoff 	0
scalar MyScenario.node[298].nic.mac1609_4 	SlotsBackoff 	0
scalar MyScenario.node[298].nic.mac1609_4 	NumInternalContention 	0
scalar MyScenario.node[298].nic.mac1609_4 	totalBusyTime 	0.000232
scalar MyScenario.node[298].veinsmobility 	startTime 	7
scalar MyScenario.node[298].veinsmobility 	totalTime 	150
scalar MyScenario.node[298].veinsmobility 	stopTime 	158
scalar MyScenario.node[298].veinsmobility 	minSpeed 	0.0014472706449295
scalar MyScenario.node[298].veinsmobility 	maxSpeed 	13.886348441383
scalar MyScenario.node[298].veinsmobility 	totalDistance 	1262.5165583656
scalar MyScenario.node[298].veinsmobility 	totalCO2Emission 	434.22971911066
scalar MyScenario.node[17].appl 	generatedWSMs 	0
scalar MyScenario.node[17].appl 	receivedWSMs 	0
scalar MyScenario.node[17].appl 	generatedBSMs 	0
scalar MyScenario.node[17].appl 	receivedBSMs 	0
scalar MyScenario.node[17].appl 	generatedWSAs 	0
scalar MyScenario.node[17].appl 	receivedWSAs 	0
scalar MyScenario.node[17].nic.phy80211p 	busyTime 	0
scalar MyScenario.node[17].nic.mac1609_4 	ReceivedUnicastPackets 	0
scalar MyScenario.node[17].nic.mac1609_4 	ReceivedBroadcasts 	0
scalar MyScenario.node[17].nic.mac1609_4 	SentPackets 	0
scalar MyScenario.node[17].nic.mac1609_4 	SNIRLostPackets 	0
scalar MyScenario.node[17].nic.mac1609_4 	RXTXLostPackets 	0
scalar MyScenario.node[17].nic.mac1609_4 	TotalLostPackets 	0
scalar MyScenario.node[17].nic.mac1609_4 	DroppedPacketsInMac 	0
scalar MyScenario.node[17].nic.mac1609_4 	TooLittleTime 	0
scalar MyScenario.node[17].nic.mac1609_4 	TimesIntoBackoff 	0
scalar MyScenario.node[17].nic.mac1609_4 	SlotsBackoff 	0
scalar MyScenario.node[17].nic.mac1609_4 	NumInternalContention 	0
scalar MyScenario.node[17].nic.mac1609_4 	totalBusyTime 	0
scalar MyScenario.node[17].veinsmobility 	startTime 	1
scalar MyScenario.node[17].veinsmobility 	totalTime 	157
scalar MyScenario.node[17].veinsmobility 	stopTime 	159
scalar MyScenario.node[17].veinsmobility 	minSpeed 	0.0033508520794401
scalar MyScenario.node[17].veinsmobility 	maxSpeed 	13.870904947608
scalar MyScenario.node[17].veinsmobility 	totalDistance 	1665.8524472249
scalar MyScenario.node[17].veinsmobility 	totalCO2Emission 	479.51382224739
scalar MyScenario.node[123].appl 	generatedWSMs 	0
scalar MyScenario.node[123].appl 	receivedWSMs 	0
scalar MyScenario.node[123].appl 	generatedBSMs 	0
scalar MyScenario.node[123].appl 	receivedBSMs 	0
scalar MyScenario.node[123].appl 	generatedWSAs 	0
scalar MyScenario.node[123].appl 	receivedWSAs 	0
scalar MyScenario.node[123].nic.phy80211p 	busyTime 	0
scalar MyScenario.node[123].nic.mac1609_4 	ReceivedUnicastPackets 	0
scalar MyScenario.node[123].nic.mac1609_4 	ReceivedBroadcasts 	0
scalar MyScenario.node[123].nic.mac1609_4 	SentPackets 	0
scalar MyScenario.node[123].nic.mac1609_4 	SNIRLostPackets 	0
scalar MyScenario.node[123].nic.mac1609_4 	RXTXLostPackets 	0
scalar MyScenario.node[123].nic.mac1609_4 	TotalLostPackets 	0
scalar MyScenario.node[123].nic.mac1609_4 	DroppedPacketsInMac 	0
scalar MyScenario.node[123].nic.mac1609_4 	TooLittleTime 	0
scalar MyScenario.node[123].nic.mac1609_4 	TimesIntoBackoff 	0
scalar MyScenario.node[123].nic.mac1609_4 	SlotsBackoff 	0
scalar MyScenario.node[123].nic.mac1609_4 	NumInternalContention 	0
scalar MyScenario.node[123].nic.mac1609_4 	totalBusyTime 	0
scalar MyScenario.node[123].veinsmobility 	startTime 	1
scalar MyScenario.node[123].veinsmobility 	totalTime 	160
scalar MyScenario.node[123].veinsmobility 	stopTime 	162
scalar MyScenario.node[123].veinsmobility 	minSpeed 	0.0043138567698954
scalar MyScenario.node[123].veinsmobility 	maxSpeed 	13.885120800417
scalar MyScenario.node[123].veinsmobility 	totalDistance 	1579.2398326782
scalar MyScenario.node[123].veinsmobility 	totalCO2Emission 	460.00959998775
scalar MyScenario.node[208].appl 	generatedWSMs 	0
scalar MyScenario.node[208].appl 	receivedWSMs 	0
scalar MyScenario.node[208].appl 	generatedBSMs 	0
scalar MyScenario.node[208].appl 	receivedBSMs 	0
scalar MyScenario.node[208].appl 	generatedWSAs 	0
scalar MyScenario.node[208].appl 	receivedWSAs 	0
scalar MyScenario.node[208].nic.phy80211p 	busyTime 	4.3229813664596e-06
scalar MyScenario.node[208].nic.mac1609_4 	ReceivedUnicastPackets 	0
scalar MyScenario.node[208].nic.mac1609_4 	ReceivedBroadcasts 	0
scalar MyScenario.node[208].nic.mac1609_4 	SentPackets 	0
scalar MyScenario.node[208].nic.mac1609_4 	SNIRLostPackets 	3
scalar MyScenario.node[208].nic.mac1609_4 	RXTXLostPackets 	0
scalar MyScenario.node[208].nic.mac1609_4 	TotalLostPackets 	3
scalar MyScenario.node[208].nic.mac1609_4 	DroppedPacketsInMac 	0
scalar MyScenario.node[208].nic.mac1609_4 	TooLittleTime 	0
scalar MyScenario.node[208].nic.mac1609_4 	TimesIntoBackoff 	0
scalar MyScenario.node[208].nic.mac1609_4 	SlotsBackoff 	0
scalar MyScenario.node[208].nic.mac1609_4 	NumInternalContention 	0
scalar MyScenario.node[208].nic.mac1609_4 	totalBusyTime 	0.000464
scalar MyScenario.node[208].veinsmobility 	startTime 	4
scalar MyScenario.node[208].veinsmobility 	totalTime 	160
scalar MyScenario.node[208].veinsmobility 	stopTime 	165
scalar MyScenario.node[208].veinsmobility 	minSpeed 	0.00010639072295045
scalar MyScenario.node[208].veinsmobility 	maxSpeed 	13.893377496535
scalar MyScenario.node[208].veinsmobility 	totalDistance 	1275.8929230935
scalar MyScenario.node[208].veinsmobility 	totalCO2Emission 	458.82047582841
scalar MyScenario.node[18].appl 	generatedWSMs 	0
scalar MyScenario.node[18].appl 	receivedWSMs 	0
scalar MyScenario.node[18].appl 	generatedBSMs 	0
scalar MyScenario.node[18].appl 	receivedBSMs 	0
scalar MyScenario.node[18].appl 	generatedWSAs 	0
scalar MyScenario.node[18].appl 	receivedWSAs 	0
scalar MyScenario.node[18].nic.phy80211p 	busyTime 	0
scalar MyScenario.node[18].nic.mac1609_4 	ReceivedUnicastPackets 	0
scalar MyScenario.node[18].nic.mac1609_4 	ReceivedBroadcasts 	0
scalar MyScenario.node[18].nic.mac1609_4 	SentPackets 	0
scalar MyScenario.node[18].nic.mac1609_4 	SNIRLostPackets 	0
scalar MyScenario.node[18].nic.mac1609_4 	RXTXLostPackets 	0
scalar MyScenario.node[18].nic.mac1609_4 	TotalLostPackets 	0
scalar MyScenario.node[18].nic.mac1609_4 	DroppedPacketsInMac 	0
scalar MyScenario.node[18].nic.mac1609_4 	TooLittleTime 	0
scalar MyScenario.node[18].nic.mac1609_4 	TimesIntoBackoff 	0
scalar MyScenario.node[18].nic.mac1609_4 	SlotsBackoff 	0
scalar MyScenario.node[18].nic.mac1609_4 	NumInternalContention 	0
scalar MyScenario.node[18].nic.mac1609_4 	totalBusyTime 	0
scalar MyScenario.node[18].veinsmobility 	startTime 	1
scalar MyScenario.node[18].veinsmobility 	totalTime 	164
scalar MyScenario.node[18].veinsmobility 	stopTime 	166
scalar MyScenario.node[18].veinsmobility 	minSpeed 	0.0024280974165562
scalar MyScenario.node[18].veinsmobility 	maxSpeed 	13.859610437695
scalar MyScenario.node[18].veinsmobility 	totalDistance 	1354.9065255414
scalar MyScenario.node[18].veinsmobility 	totalCO2Emission 	481.2040351339
scalar MyScenario.node[233].appl 	generatedWSMs 	1
scalar MyScenario.node[233].appl 	receivedWSMs 	9
scalar MyScenario.node[233].appl 	generatedBSMs 	0
scalar MyScenario.node[233].appl 	receivedBSMs 	0
scalar MyScenario.node[233].appl 	generatedWSAs 	0
scalar MyScenario.node[233].appl 	receivedWSAs 	0
scalar MyScenario.node[233].nic.phy80211p 	busyTime 	4.2181818181818e-05
scalar MyScenario.node[233].nic.mac1609_4 	ReceivedUnicastPackets 	0
scalar MyScenario.node[233].nic.mac1609_4 	ReceivedBroadcasts 	9
scalar MyScenario.node[233].nic.mac1609_4 	SentPackets 	1
scalar MyScenario.node[233].nic.mac1609_4 	SNIRLostPackets 	21
scalar MyScenario.node[233].nic.mac1609_4 	RXTXLostPackets 	4
scalar MyScenario.node[233].nic.mac1609_4 	TotalLostPackets 	25
scalar MyScenario.node[233].nic.mac1609_4 	DroppedPacketsInMac 	0
scalar MyScenario.node[233].nic.mac1609_4 	TooLittleTime 	0
scalar MyScenario.node[233].nic.mac1609_4 	TimesIntoBackoff 	1
scalar MyScenario.node[233].nic.mac1609_4 	SlotsBackoff 	1
scalar MyScenario.node[233].nic.mac1609_4 	NumInternalContention 	0
scalar MyScenario.node[233].nic.mac1609_4 	totalBusyTime 	0.004177
scalar MyScenario.node[233].veinsmobility 	startTime 	4
scalar MyScenario.node[233].veinsmobility 	totalTime 	164
scalar MyScenario.node[233].veinsmobility 	stopTime 	169
scalar MyScenario.node[233].veinsmobility 	minSpeed 	5.8507844423641e-11
scalar MyScenario.node[233].veinsmobility 	maxSpeed 	13.86146185156
scalar MyScenario.node[233].veinsmobility 	totalDistance 	1170.587527935
scalar MyScenario.node[233].veinsmobility 	totalCO2Emission 	471.52487879563
scalar MyScenario.node[86].appl 	generatedWSMs 	0
scalar MyScenario.node[86].appl 	receivedWSMs 	0
scalar MyScenario.node[86].appl 	generatedBSMs 	0
scalar MyScenario.node[86].appl 	receivedBSMs 	0
scalar MyScenario.node[86].appl 	generatedWSAs 	0
scalar MyScenario.node[86].appl 	receivedWSAs 	0
scalar MyScenario.node[86].nic.phy80211p 	busyTime 	0
scalar MyScenario.node[86].nic.mac1609_4 	ReceivedUnicastPackets 	0
scalar MyScenario.node[86].nic.mac1609_4 	ReceivedBroadcasts 	0
scalar MyScenario.node[86].nic.mac1609_4 	SentPackets 	0
scalar MyScenario.node[86].nic.mac1609_4 	SNIRLostPackets 	0
scalar MyScenario.node[86].nic.mac1609_4 	RXTXLostPackets 	0
scalar MyScenario.node[86].nic.mac1609_4 	TotalLostPackets 	0
scalar MyScenario.node[86].nic.mac1609_4 	DroppedPacketsInMac 	0
scalar MyScenario.node[86].nic.mac1609_4 	TooLittleTime 	0
scalar MyScenario.node[86].nic.mac1609_4 	TimesIntoBackoff 	0
scalar MyScenario.node[86].nic.mac1609_4 	SlotsBackoff 	0
scalar MyScenario.node[86].nic.mac1609_4 	NumInternalContention 	0
scalar MyScenario.node[86].nic.mac1609_4 	totalBusyTime 	0
scalar MyScenario.node[86].veinsmobility 	startTime 	1
scalar MyScenario.node[86].veinsmobility 	totalTime 	169
scalar MyScenario.node[86].veinsmobility 	stopTime 	171
scalar MyScenario.node[86].veinsmobility 	minSpeed 	3.2321684453626e-09
scalar MyScenario.node[86].veinsmobility 	maxSpeed 	13.898227641871
scalar MyScenario.node[86].veinsmobility 	totalDistance 	1458.566377401
scalar MyScenario.node[86].veinsmobility 	totalCO2Emission 	447.87854661335
scalar MyScenario.node[189].appl 	generatedWSMs 	0
scalar MyScenario.node[189].appl 	receivedWSMs 	0
scalar MyScenario.node[189].appl 	generatedBSMs 	0
scalar MyScenario.node[189].appl 	receivedBSMs 	0
scalar MyScenario.node[189].appl 	generatedWSAs 	0
scalar MyScenario.node[189].appl 	receivedWSAs 	0
scalar MyScenario.node[189].nic.phy80211p 	busyTime 	9.5529411764706e-06
scalar MyScenario.node[189].nic.mac1609_4 	ReceivedUnicastPackets 	0
scalar MyScenario.node[189].nic.mac1609_4 	ReceivedBroadcasts 	0
scalar MyScenario.node[189].nic.mac1609_4 	SentPackets 	0
scalar MyScenario.node[189].nic.mac1609_4 	SNIRLostPackets 	7
scalar MyScenario.node[189].nic.mac1609_4 	RXTXLostPackets 	0
scalar MyScenario.node[189].nic.mac1609_4 	TotalLostPackets 	7
scalar MyScenario.node[189].nic.mac1609_4 	DroppedPacketsInMac 	0
scalar MyScenario.node[189].nic.mac1609_4 	TooLittleTime 	0
scalar MyScenario.node[189].nic.mac1609_4 	TimesIntoBackoff 	0
scalar MyScenario.node[189].nic.mac1609_4 	SlotsBackoff 	0
scalar MyScenario.node[189].nic.mac1609_4 	NumInternalContention 	0
scalar MyScenario.node[189].nic.mac1609_4 	totalBusyTime 	0.000464
scalar MyScenario.node[189].veinsmobility 	startTime 	1
scalar MyScenario.node[189].veinsmobility 	totalTime 	170
scalar MyScenario.node[189].veinsmobility 	stopTime 	171
scalar MyScenario.node[189].veinsmobility 	minSpeed 	4.9100842462428e-06
scalar MyScenario.node[189].veinsmobility 	maxSpeed 	13.885944830836
scalar MyScenario.node[189].veinsmobility 	totalDistance 	1632.7360966691
scalar MyScenario.node[189].veinsmobility 	totalCO2Emission 	502.62784584913
