version 2
run General-29-20170829-17:44:45-8100
attr configname General
attr datetime 20170829-17:44:45
attr density 300
attr experiment General
attr inifile omnetpp.ini
attr iterationvars $density=300
attr iterationvars2 "$density=300, $repetition=9"
attr measurement $density=300
attr network com.liborio.pi.MyScenario
attr processid 8100
attr repetition 9
attr replication #9
attr resultdir results
attr runnumber 29
attr seedset 9
param **.coreDebug false
param **.debug false
param *.**.nic.mac1609_4.bitrate 6Mbps
param *.**.nic.mac1609_4.txPower 20mW
param *.**.nic.mac1609_4.useServiceChannel true
param *.**.nic.phy80211p.analogueModels "xmldoc(\"config.xml\")"
param *.**.nic.phy80211p.antenna "xmldoc(\"antenna.xml\", \"/root/Antenna[@id='monopole']\")"
param *.**.nic.phy80211p.decider "xmldoc(\"config.xml\")"
param *.**.nic.phy80211p.sensitivity -84.39dBm
param *.**.nic.phy80211p.thermalNoise -110dBm
param *.**.nic.phy80211p.usePropagationDelay true
param *.**.nic.phy80211p.useThermalNoise true
param *.annotations.draw true
param *.connectionManager.drawMaxIntfDist false
param *.connectionManager.maxInterfDist 2600m
param *.connectionManager.sendDirect true
param *.manager.autoShutdown true
param *.manager.host "\"localhost\""
param *.manager.launchConfig "xmldoc(string(${density = 100, 200, 300, 400})+\"_\"+ string(${repetition})+\".launchd.xml\")"
param *.manager.port 9999
param *.manager.updateInterval 1s
param *.node[*].appl.beaconInterval 1s
param *.node[*].appl.dataOnSch true
param *.node[*].appl.headerLength "80 bit"
param *.node[*].appl.isSource false
param *.node[*].appl.numMsgs 100
param *.node[*].appl.sendBeacons false
param *.node[*].appl.stopTrafficTime 130s
param *.node[*].appl.wsmInterval 3s
param *.node[*].applType "\"Flooding\""
param *.node[*].veinsmobility.x 0
param *.node[*].veinsmobility.y 0
param *.node[*].veinsmobility.z 1.895
param *.node[*].veinsmobilityType.debug true
param *.node[0].appl.isSource true
param *.playgroundSizeX 2500m
param *.playgroundSizeY 2500m
param *.playgroundSizeZ 50m

scalar . 	density 	300
scalar MyScenario.node[116].appl 	generatedWSMs 	1
scalar MyScenario.node[116].appl 	receivedWSMs 	3
scalar MyScenario.node[116].appl 	generatedBSMs 	0
scalar MyScenario.node[116].appl 	receivedBSMs 	0
scalar MyScenario.node[116].appl 	generatedWSAs 	0
scalar MyScenario.node[116].appl 	receivedWSAs 	0
scalar MyScenario.node[116].nic.phy80211p 	busyTime 	0.00037963636363636
scalar MyScenario.node[116].nic.mac1609_4 	ReceivedUnicastPackets 	0
scalar MyScenario.node[116].nic.mac1609_4 	ReceivedBroadcasts 	3
scalar MyScenario.node[116].nic.mac1609_4 	SentPackets 	1
scalar MyScenario.node[116].nic.mac1609_4 	SNIRLostPackets 	15
scalar MyScenario.node[116].nic.mac1609_4 	RXTXLostPackets 	18
scalar MyScenario.node[116].nic.mac1609_4 	TotalLostPackets 	33
scalar MyScenario.node[116].nic.mac1609_4 	DroppedPacketsInMac 	0
scalar MyScenario.node[116].nic.mac1609_4 	TooLittleTime 	0
scalar MyScenario.node[116].nic.mac1609_4 	TimesIntoBackoff 	1
scalar MyScenario.node[116].nic.mac1609_4 	SlotsBackoff 	3
scalar MyScenario.node[116].nic.mac1609_4 	NumInternalContention 	0
scalar MyScenario.node[116].nic.mac1609_4 	totalBusyTime 	0.001857032417
scalar MyScenario.node[116].veinsmobility 	startTime 	1
scalar MyScenario.node[116].veinsmobility 	totalTime 	10
scalar MyScenario.node[116].veinsmobility 	stopTime 	12
scalar MyScenario.node[116].veinsmobility 	minSpeed 	1.464629844809
scalar MyScenario.node[116].veinsmobility 	maxSpeed 	13.454096611659
scalar MyScenario.node[116].veinsmobility 	totalDistance 	87.061958666082
scalar MyScenario.node[116].veinsmobility 	totalCO2Emission 	40.730619573963
scalar MyScenario.node[256].appl 	generatedWSMs 	1
scalar MyScenario.node[256].appl 	receivedWSMs 	6
scalar MyScenario.node[256].appl 	generatedBSMs 	0
scalar MyScenario.node[256].appl 	receivedBSMs 	0
scalar MyScenario.node[256].appl 	generatedWSAs 	0
scalar MyScenario.node[256].appl 	receivedWSAs 	0
scalar MyScenario.node[256].nic.phy80211p 	busyTime 	0.0005336
scalar MyScenario.node[256].nic.mac1609_4 	ReceivedUnicastPackets 	0
scalar MyScenario.node[256].nic.mac1609_4 	ReceivedBroadcasts 	6
scalar MyScenario.node[256].nic.mac1609_4 	SentPackets 	1
scalar MyScenario.node[256].nic.mac1609_4 	SNIRLostPackets 	17
scalar MyScenario.node[256].nic.mac1609_4 	RXTXLostPackets 	3
scalar MyScenario.node[256].nic.mac1609_4 	TotalLostPackets 	20
scalar MyScenario.node[256].nic.mac1609_4 	DroppedPacketsInMac 	0
scalar MyScenario.node[256].nic.mac1609_4 	TooLittleTime 	0
scalar MyScenario.node[256].nic.mac1609_4 	TimesIntoBackoff 	1
scalar MyScenario.node[256].nic.mac1609_4 	SlotsBackoff 	0
scalar MyScenario.node[256].nic.mac1609_4 	NumInternalContention 	0
scalar MyScenario.node[256].nic.mac1609_4 	totalBusyTime 	0.003017
scalar MyScenario.node[256].veinsmobility 	startTime 	4
scalar MyScenario.node[256].veinsmobility 	totalTime 	9
scalar MyScenario.node[256].veinsmobility 	stopTime 	14
scalar MyScenario.node[256].veinsmobility 	minSpeed 	2.567491884972
scalar MyScenario.node[256].veinsmobility 	maxSpeed 	13.859789043618
scalar MyScenario.node[256].veinsmobility 	totalDistance 	83.351711028279
scalar MyScenario.node[256].veinsmobility 	totalCO2Emission 	37.580852458124
scalar MyScenario.node[170].appl 	generatedWSMs 	1
scalar MyScenario.node[170].appl 	receivedWSMs 	7
scalar MyScenario.node[170].appl 	generatedBSMs 	0
scalar MyScenario.node[170].appl 	receivedBSMs 	0
scalar MyScenario.node[170].appl 	generatedWSAs 	0
scalar MyScenario.node[170].appl 	receivedWSAs 	0
scalar MyScenario.node[170].nic.phy80211p 	busyTime 	0.0003596
scalar MyScenario.node[170].nic.mac1609_4 	ReceivedUnicastPackets 	0
scalar MyScenario.node[170].nic.mac1609_4 	ReceivedBroadcasts 	7
scalar MyScenario.node[170].nic.mac1609_4 	SentPackets 	1
scalar MyScenario.node[170].nic.mac1609_4 	SNIRLostPackets 	24
scalar MyScenario.node[170].nic.mac1609_4 	RXTXLostPackets 	16
scalar MyScenario.node[170].nic.mac1609_4 	TotalLostPackets 	40
scalar MyScenario.node[170].nic.mac1609_4 	DroppedPacketsInMac 	0
scalar MyScenario.node[170].nic.mac1609_4 	TooLittleTime 	0
scalar MyScenario.node[170].nic.mac1609_4 	TimesIntoBackoff 	1
scalar MyScenario.node[170].nic.mac1609_4 	SlotsBackoff 	1
scalar MyScenario.node[170].nic.mac1609_4 	NumInternalContention 	0
scalar MyScenario.node[170].nic.mac1609_4 	totalBusyTime 	0.00324908857
scalar MyScenario.node[170].veinsmobility 	startTime 	1
scalar MyScenario.node[170].veinsmobility 	totalTime 	19
scalar MyScenario.node[170].veinsmobility 	stopTime 	21
scalar MyScenario.node[170].veinsmobility 	minSpeed 	1.3196049123304
scalar MyScenario.node[170].veinsmobility 	maxSpeed 	13.495442402223
scalar MyScenario.node[170].veinsmobility 	totalDistance 	173.84354254325
scalar MyScenario.node[170].veinsmobility 	totalCO2Emission 	71.680147202646
scalar MyScenario.node[35].appl 	generatedWSMs 	1
scalar MyScenario.node[35].appl 	receivedWSMs 	8
scalar MyScenario.node[35].appl 	generatedBSMs 	0
scalar MyScenario.node[35].appl 	receivedBSMs 	0
scalar MyScenario.node[35].appl 	generatedWSAs 	0
scalar MyScenario.node[35].appl 	receivedWSAs 	0
scalar MyScenario.node[35].nic.phy80211p 	busyTime 	0.000348
scalar MyScenario.node[35].nic.mac1609_4 	ReceivedUnicastPackets 	0
scalar MyScenario.node[35].nic.mac1609_4 	ReceivedBroadcasts 	8
scalar MyScenario.node[35].nic.mac1609_4 	SentPackets 	1
scalar MyScenario.node[35].nic.mac1609_4 	SNIRLostPackets 	34
scalar MyScenario.node[35].nic.mac1609_4 	RXTXLostPackets 	3
scalar MyScenario.node[35].nic.mac1609_4 	TotalLostPackets 	37
scalar MyScenario.node[35].nic.mac1609_4 	DroppedPacketsInMac 	0
scalar MyScenario.node[35].nic.mac1609_4 	TooLittleTime 	0
scalar MyScenario.node[35].nic.mac1609_4 	TimesIntoBackoff 	1
scalar MyScenario.node[35].nic.mac1609_4 	SlotsBackoff 	1
scalar MyScenario.node[35].nic.mac1609_4 	NumInternalContention 	0
scalar MyScenario.node[35].nic.mac1609_4 	totalBusyTime 	0.004641
scalar MyScenario.node[35].veinsmobility 	startTime 	1
scalar MyScenario.node[35].veinsmobility 	totalTime 	27
scalar MyScenario.node[35].veinsmobility 	stopTime 	29
scalar MyScenario.node[35].veinsmobility 	minSpeed 	1.8627788593061
scalar MyScenario.node[35].veinsmobility 	maxSpeed 	13.887574525294
scalar MyScenario.node[35].veinsmobility 	totalDistance 	279.57805798526
scalar MyScenario.node[35].veinsmobility 	totalCO2Emission 	106.04266749871
scalar MyScenario.node[240].appl 	generatedWSMs 	0
scalar MyScenario.node[240].appl 	receivedWSMs 	0
scalar MyScenario.node[240].appl 	generatedBSMs 	0
scalar MyScenario.node[240].appl 	receivedBSMs 	0
scalar MyScenario.node[240].appl 	generatedWSAs 	0
scalar MyScenario.node[240].appl 	receivedWSAs 	0
scalar MyScenario.node[240].nic.phy80211p 	busyTime 	0
scalar MyScenario.node[240].nic.mac1609_4 	ReceivedUnicastPackets 	0
scalar MyScenario.node[240].nic.mac1609_4 	ReceivedBroadcasts 	0
scalar MyScenario.node[240].nic.mac1609_4 	SentPackets 	0
scalar MyScenario.node[240].nic.mac1609_4 	SNIRLostPackets 	0
scalar MyScenario.node[240].nic.mac1609_4 	RXTXLostPackets 	0
scalar MyScenario.node[240].nic.mac1609_4 	TotalLostPackets 	0
scalar MyScenario.node[240].nic.mac1609_4 	DroppedPacketsInMac 	0
scalar MyScenario.node[240].nic.mac1609_4 	TooLittleTime 	0
scalar MyScenario.node[240].nic.mac1609_4 	TimesIntoBackoff 	0
scalar MyScenario.node[240].nic.mac1609_4 	SlotsBackoff 	0
scalar MyScenario.node[240].nic.mac1609_4 	NumInternalContention 	0
scalar MyScenario.node[240].nic.mac1609_4 	totalBusyTime 	0
scalar MyScenario.node[240].veinsmobility 	startTime 	4
scalar MyScenario.node[240].veinsmobility 	totalTime 	25
scalar MyScenario.node[240].veinsmobility 	stopTime 	30
scalar MyScenario.node[240].veinsmobility 	minSpeed 	1.4692257239483
scalar MyScenario.node[240].veinsmobility 	maxSpeed 	13.825707679009
scalar MyScenario.node[240].veinsmobility 	totalDistance 	281.65702395244
scalar MyScenario.node[240].veinsmobility 	totalCO2Emission 	70.932272954963
scalar MyScenario.node[208].appl 	generatedWSMs 	1
scalar MyScenario.node[208].appl 	receivedWSMs 	1
scalar MyScenario.node[208].appl 	generatedBSMs 	0
scalar MyScenario.node[208].appl 	receivedBSMs 	0
scalar MyScenario.node[208].appl 	generatedWSAs 	0
scalar MyScenario.node[208].appl 	receivedWSAs 	0
scalar MyScenario.node[208].nic.phy80211p 	busyTime 	0.00021542857142857
scalar MyScenario.node[208].nic.mac1609_4 	ReceivedUnicastPackets 	0
scalar MyScenario.node[208].nic.mac1609_4 	ReceivedBroadcasts 	1
scalar MyScenario.node[208].nic.mac1609_4 	SentPackets 	1
scalar MyScenario.node[208].nic.mac1609_4 	SNIRLostPackets 	25
scalar MyScenario.node[208].nic.mac1609_4 	RXTXLostPackets 	3
scalar MyScenario.node[208].nic.mac1609_4 	TotalLostPackets 	28
scalar MyScenario.node[208].nic.mac1609_4 	DroppedPacketsInMac 	0
scalar MyScenario.node[208].nic.mac1609_4 	TooLittleTime 	0
scalar MyScenario.node[208].nic.mac1609_4 	TimesIntoBackoff 	1
scalar MyScenario.node[208].nic.mac1609_4 	SlotsBackoff 	3
scalar MyScenario.node[208].nic.mac1609_4 	NumInternalContention 	0
scalar MyScenario.node[208].nic.mac1609_4 	totalBusyTime 	0.001857
scalar MyScenario.node[208].veinsmobility 	startTime 	4
scalar MyScenario.node[208].veinsmobility 	totalTime 	27
scalar MyScenario.node[208].veinsmobility 	stopTime 	32
scalar MyScenario.node[208].veinsmobility 	minSpeed 	2.0621599561069
scalar MyScenario.node[208].veinsmobility 	maxSpeed 	13.862875560112
scalar MyScenario.node[208].veinsmobility 	totalDistance 	268.84415367914
scalar MyScenario.node[208].veinsmobility 	totalCO2Emission 	89.214266853241
scalar MyScenario.node[172].appl 	generatedWSMs 	1
scalar MyScenario.node[172].appl 	receivedWSMs 	1
scalar MyScenario.node[172].appl 	generatedBSMs 	0
scalar MyScenario.node[172].appl 	receivedBSMs 	0
scalar MyScenario.node[172].appl 	generatedWSAs 	0
scalar MyScenario.node[172].appl 	receivedWSAs 	0
scalar MyScenario.node[172].nic.phy80211p 	busyTime 	0.00010917647058824
scalar MyScenario.node[172].nic.mac1609_4 	ReceivedUnicastPackets 	0
scalar MyScenario.node[172].nic.mac1609_4 	ReceivedBroadcasts 	1
scalar MyScenario.node[172].nic.mac1609_4 	SentPackets 	1
scalar MyScenario.node[172].nic.mac1609_4 	SNIRLostPackets 	15
scalar MyScenario.node[172].nic.mac1609_4 	RXTXLostPackets 	15
scalar MyScenario.node[172].nic.mac1609_4 	TotalLostPackets 	30
scalar MyScenario.node[172].nic.mac1609_4 	DroppedPacketsInMac 	0
scalar MyScenario.node[172].nic.mac1609_4 	TooLittleTime 	0
scalar MyScenario.node[172].nic.mac1609_4 	TimesIntoBackoff 	1
scalar MyScenario.node[172].nic.mac1609_4 	SlotsBackoff 	0
scalar MyScenario.node[172].nic.mac1609_4 	NumInternalContention 	0
scalar MyScenario.node[172].nic.mac1609_4 	totalBusyTime 	0.001857000085
scalar MyScenario.node[172].veinsmobility 	startTime 	1
scalar MyScenario.node[172].veinsmobility 	totalTime 	33
scalar MyScenario.node[172].veinsmobility 	stopTime 	35
scalar MyScenario.node[172].veinsmobility 	minSpeed 	2.0437650938984
scalar MyScenario.node[172].veinsmobility 	maxSpeed 	13.80210154627
scalar MyScenario.node[172].veinsmobility 	totalDistance 	376.39034934339
scalar MyScenario.node[172].veinsmobility 	totalCO2Emission 	106.78023676215
scalar MyScenario.node[171].appl 	generatedWSMs 	1
scalar MyScenario.node[171].appl 	receivedWSMs 	2
scalar MyScenario.node[171].appl 	generatedBSMs 	0
scalar MyScenario.node[171].appl 	receivedBSMs 	0
scalar MyScenario.node[171].appl 	generatedWSAs 	0
scalar MyScenario.node[171].appl 	receivedWSAs 	0
scalar MyScenario.node[171].nic.phy80211p 	busyTime 	0.00021152941176471
scalar MyScenario.node[171].nic.mac1609_4 	ReceivedUnicastPackets 	0
scalar MyScenario.node[171].nic.mac1609_4 	ReceivedBroadcasts 	2
scalar MyScenario.node[171].nic.mac1609_4 	SentPackets 	1
scalar MyScenario.node[171].nic.mac1609_4 	SNIRLostPackets 	29
scalar MyScenario.node[171].nic.mac1609_4 	RXTXLostPackets 	11
scalar MyScenario.node[171].nic.mac1609_4 	TotalLostPackets 	40
scalar MyScenario.node[171].nic.mac1609_4 	DroppedPacketsInMac 	0
scalar MyScenario.node[171].nic.mac1609_4 	TooLittleTime 	0
scalar MyScenario.node[171].nic.mac1609_4 	TimesIntoBackoff 	1
scalar MyScenario.node[171].nic.mac1609_4 	SlotsBackoff 	2
scalar MyScenario.node[171].nic.mac1609_4 	NumInternalContention 	0
scalar MyScenario.node[171].nic.mac1609_4 	totalBusyTime 	0.002785
scalar MyScenario.node[171].veinsmobility 	startTime 	1
scalar MyScenario.node[171].veinsmobility 	totalTime 	33
scalar MyScenario.node[171].veinsmobility 	stopTime 	35
scalar MyScenario.node[171].veinsmobility 	minSpeed 	1.7386537991464
scalar MyScenario.node[171].veinsmobility 	maxSpeed 	13.871101354435
scalar MyScenario.node[171].veinsmobility 	totalDistance 	372.49985138661
scalar MyScenario.node[171].veinsmobility 	totalCO2Emission 	106.68513836819
scalar MyScenario.node[297].appl 	generatedWSMs 	1
scalar MyScenario.node[297].appl 	receivedWSMs 	8
scalar MyScenario.node[297].appl 	generatedBSMs 	0
scalar MyScenario.node[297].appl 	receivedBSMs 	0
scalar MyScenario.node[297].appl 	generatedWSAs 	0
scalar MyScenario.node[297].appl 	receivedWSAs 	0
scalar MyScenario.node[297].nic.phy80211p 	busyTime 	0.000232
scalar MyScenario.node[297].nic.mac1609_4 	ReceivedUnicastPackets 	0
scalar MyScenario.node[297].nic.mac1609_4 	ReceivedBroadcasts 	8
scalar MyScenario.node[297].nic.mac1609_4 	SentPackets 	1
scalar MyScenario.node[297].nic.mac1609_4 	SNIRLostPackets 	14
scalar MyScenario.node[297].nic.mac1609_4 	RXTXLostPackets 	2
scalar MyScenario.node[297].nic.mac1609_4 	TotalLostPackets 	16
scalar MyScenario.node[297].nic.mac1609_4 	DroppedPacketsInMac 	0
scalar MyScenario.node[297].nic.mac1609_4 	TooLittleTime 	0
scalar MyScenario.node[297].nic.mac1609_4 	TimesIntoBackoff 	1
scalar MyScenario.node[297].nic.mac1609_4 	SlotsBackoff 	1
scalar MyScenario.node[297].nic.mac1609_4 	NumInternalContention 	0
scalar MyScenario.node[297].nic.mac1609_4 	totalBusyTime 	0.003713
scalar MyScenario.node[297].veinsmobility 	startTime 	14
scalar MyScenario.node[297].veinsmobility 	totalTime 	21
scalar MyScenario.node[297].veinsmobility 	stopTime 	36
scalar MyScenario.node[297].veinsmobility 	minSpeed 	12.716009588097
scalar MyScenario.node[297].veinsmobility 	maxSpeed 	13.879847039212
scalar MyScenario.node[297].veinsmobility 	totalDistance 	277.44709859509
scalar MyScenario.node[297].veinsmobility 	totalCO2Emission 	44.559132327275
scalar MyScenario.node[85].appl 	generatedWSMs 	0
scalar MyScenario.node[85].appl 	receivedWSMs 	0
scalar MyScenario.node[85].appl 	generatedBSMs 	0
scalar MyScenario.node[85].appl 	receivedBSMs 	0
scalar MyScenario.node[85].appl 	generatedWSAs 	0
scalar MyScenario.node[85].appl 	receivedWSAs 	0
scalar MyScenario.node[85].nic.phy80211p 	busyTime 	0.00012594285714286
scalar MyScenario.node[85].nic.mac1609_4 	ReceivedUnicastPackets 	0
scalar MyScenario.node[85].nic.mac1609_4 	ReceivedBroadcasts 	0
scalar MyScenario.node[85].nic.mac1609_4 	SentPackets 	0
scalar MyScenario.node[85].nic.mac1609_4 	SNIRLostPackets 	19
scalar MyScenario.node[85].nic.mac1609_4 	RXTXLostPackets 	0
scalar MyScenario.node[85].nic.mac1609_4 	TotalLostPackets 	19
scalar MyScenario.node[85].nic.mac1609_4 	DroppedPacketsInMac 	0
scalar MyScenario.node[85].nic.mac1609_4 	TooLittleTime 	0
scalar MyScenario.node[85].nic.mac1609_4 	TimesIntoBackoff 	0
scalar MyScenario.node[85].nic.mac1609_4 	SlotsBackoff 	0
scalar MyScenario.node[85].nic.mac1609_4 	NumInternalContention 	0
scalar MyScenario.node[85].nic.mac1609_4 	totalBusyTime 	0.000696080745
scalar MyScenario.node[85].veinsmobility 	startTime 	1
scalar MyScenario.node[85].veinsmobility 	totalTime 	34
scalar MyScenario.node[85].veinsmobility 	stopTime 	36
scalar MyScenario.node[85].veinsmobility 	minSpeed 	1.5695240676869
scalar MyScenario.node[85].veinsmobility 	maxSpeed 	13.849056985788
scalar MyScenario.node[85].veinsmobility 	totalDistance 	377.53212091
scalar MyScenario.node[85].veinsmobility 	totalCO2Emission 	104.58916826239
scalar MyScenario.node[115].appl 	generatedWSMs 	1
scalar MyScenario.node[115].appl 	receivedWSMs 	1
scalar MyScenario.node[115].appl 	generatedBSMs 	0
scalar MyScenario.node[115].appl 	receivedBSMs 	0
scalar MyScenario.node[115].appl 	generatedWSAs 	0
scalar MyScenario.node[115].appl 	receivedWSAs 	0
scalar MyScenario.node[115].nic.phy80211p 	busyTime 	2.8292682926829e-05
scalar MyScenario.node[115].nic.mac1609_4 	ReceivedUnicastPackets 	0
scalar MyScenario.node[115].nic.mac1609_4 	ReceivedBroadcasts 	1
scalar MyScenario.node[115].nic.mac1609_4 	SentPackets 	1
scalar MyScenario.node[115].nic.mac1609_4 	SNIRLostPackets 	4
scalar MyScenario.node[115].nic.mac1609_4 	RXTXLostPackets 	7
scalar MyScenario.node[115].nic.mac1609_4 	TotalLostPackets 	11
scalar MyScenario.node[115].nic.mac1609_4 	DroppedPacketsInMac 	0
scalar MyScenario.node[115].nic.mac1609_4 	TooLittleTime 	0
scalar MyScenario.node[115].nic.mac1609_4 	TimesIntoBackoff 	1
scalar MyScenario.node[115].nic.mac1609_4 	SlotsBackoff 	0
scalar MyScenario.node[115].nic.mac1609_4 	NumInternalContention 	0
scalar MyScenario.node[115].nic.mac1609_4 	totalBusyTime 	0.001161
scalar MyScenario.node[115].veinsmobility 	startTime 	1
scalar MyScenario.node[115].veinsmobility 	totalTime 	40
scalar MyScenario.node[115].veinsmobility 	stopTime 	42
scalar MyScenario.node[115].veinsmobility 	minSpeed 	1.3857068386162
scalar MyScenario.node[115].veinsmobility 	maxSpeed 	13.83612978179
scalar MyScenario.node[115].veinsmobility 	totalDistance 	467.2359805644
scalar MyScenario.node[115].veinsmobility 	totalCO2Emission 	124.17722622395
scalar MyScenario.node[104].appl 	generatedWSMs 	1
scalar MyScenario.node[104].appl 	receivedWSMs 	1
scalar MyScenario.node[104].appl 	generatedBSMs 	0
scalar MyScenario.node[104].appl 	receivedBSMs 	0
scalar MyScenario.node[104].appl 	generatedWSAs 	0
scalar MyScenario.node[104].appl 	receivedWSAs 	0
scalar MyScenario.node[104].nic.phy80211p 	busyTime 	0.00013257142857143
scalar MyScenario.node[104].nic.mac1609_4 	ReceivedUnicastPackets 	0
scalar MyScenario.node[104].nic.mac1609_4 	ReceivedBroadcasts 	1
scalar MyScenario.node[104].nic.mac1609_4 	SentPackets 	1
scalar MyScenario.node[104].nic.mac1609_4 	SNIRLostPackets 	23
scalar MyScenario.node[104].nic.mac1609_4 	RXTXLostPackets 	4
scalar MyScenario.node[104].nic.mac1609_4 	TotalLostPackets 	27
scalar MyScenario.node[104].nic.mac1609_4 	DroppedPacketsInMac 	0
scalar MyScenario.node[104].nic.mac1609_4 	TooLittleTime 	0
scalar MyScenario.node[104].nic.mac1609_4 	TimesIntoBackoff 	1
scalar MyScenario.node[104].nic.mac1609_4 	SlotsBackoff 	1
scalar MyScenario.node[104].nic.mac1609_4 	NumInternalContention 	0
scalar MyScenario.node[104].nic.mac1609_4 	totalBusyTime 	0.002785
scalar MyScenario.node[104].veinsmobility 	startTime 	1
scalar MyScenario.node[104].veinsmobility 	totalTime 	41
scalar MyScenario.node[104].veinsmobility 	stopTime 	43
scalar MyScenario.node[104].veinsmobility 	minSpeed 	2.4720846663928
scalar MyScenario.node[104].veinsmobility 	maxSpeed 	13.893485929165
scalar MyScenario.node[104].veinsmobility 	totalDistance 	463.89137341115
scalar MyScenario.node[104].veinsmobility 	totalCO2Emission 	125.47022389084
scalar MyScenario.node[19].appl 	generatedWSMs 	1
scalar MyScenario.node[19].appl 	receivedWSMs 	3
scalar MyScenario.node[19].appl 	generatedBSMs 	0
scalar MyScenario.node[19].appl 	receivedBSMs 	0
scalar MyScenario.node[19].appl 	generatedWSAs 	0
scalar MyScenario.node[19].appl 	receivedWSAs 	0
scalar MyScenario.node[19].nic.phy80211p 	busyTime 	7.7333333333333e-05
scalar MyScenario.node[19].nic.mac1609_4 	ReceivedUnicastPackets 	0
scalar MyScenario.node[19].nic.mac1609_4 	ReceivedBroadcasts 	3
scalar MyScenario.node[19].nic.mac1609_4 	SentPackets 	1
scalar MyScenario.node[19].nic.mac1609_4 	SNIRLostPackets 	11
scalar MyScenario.node[19].nic.mac1609_4 	RXTXLostPackets 	17
scalar MyScenario.node[19].nic.mac1609_4 	TotalLostPackets 	28
scalar MyScenario.node[19].nic.mac1609_4 	DroppedPacketsInMac 	0
scalar MyScenario.node[19].nic.mac1609_4 	TooLittleTime 	0
scalar MyScenario.node[19].nic.mac1609_4 	TimesIntoBackoff 	1
scalar MyScenario.node[19].nic.mac1609_4 	SlotsBackoff 	2
scalar MyScenario.node[19].nic.mac1609_4 	NumInternalContention 	0
scalar MyScenario.node[19].nic.mac1609_4 	totalBusyTime 	0.002089176528
scalar MyScenario.node[19].veinsmobility 	startTime 	1
scalar MyScenario.node[19].veinsmobility 	totalTime 	41
scalar MyScenario.node[19].veinsmobility 	stopTime 	43
scalar MyScenario.node[19].veinsmobility 	minSpeed 	0.18545353629723
scalar MyScenario.node[19].veinsmobility 	maxSpeed 	13.584580560215
scalar MyScenario.node[19].veinsmobility 	totalDistance 	375.55313080609
scalar MyScenario.node[19].veinsmobility 	totalCO2Emission 	138.92700044003
scalar MyScenario.node[97].appl 	generatedWSMs 	0
scalar MyScenario.node[97].appl 	receivedWSMs 	0
scalar MyScenario.node[97].appl 	generatedBSMs 	0
scalar MyScenario.node[97].appl 	receivedBSMs 	0
scalar MyScenario.node[97].appl 	generatedWSAs 	0
scalar MyScenario.node[97].appl 	receivedWSAs 	0
scalar MyScenario.node[97].nic.phy80211p 	busyTime 	8.093023255814e-05
scalar MyScenario.node[97].nic.mac1609_4 	ReceivedUnicastPackets 	0
scalar MyScenario.node[97].nic.mac1609_4 	ReceivedBroadcasts 	0
scalar MyScenario.node[97].nic.mac1609_4 	SentPackets 	0
scalar MyScenario.node[97].nic.mac1609_4 	SNIRLostPackets 	15
scalar MyScenario.node[97].nic.mac1609_4 	RXTXLostPackets 	0
scalar MyScenario.node[97].nic.mac1609_4 	TotalLostPackets 	15
scalar MyScenario.node[97].nic.mac1609_4 	DroppedPacketsInMac 	0
scalar MyScenario.node[97].nic.mac1609_4 	TooLittleTime 	0
scalar MyScenario.node[97].nic.mac1609_4 	TimesIntoBackoff 	0
scalar MyScenario.node[97].nic.mac1609_4 	SlotsBackoff 	0
scalar MyScenario.node[97].nic.mac1609_4 	NumInternalContention 	0
scalar MyScenario.node[97].nic.mac1609_4 	totalBusyTime 	0.000696
scalar MyScenario.node[97].veinsmobility 	startTime 	1
scalar MyScenario.node[97].veinsmobility 	totalTime 	42
scalar MyScenario.node[97].veinsmobility 	stopTime 	44
scalar MyScenario.node[97].veinsmobility 	minSpeed 	0.067341794543316
scalar MyScenario.node[97].veinsmobility 	maxSpeed 	13.850028194883
scalar MyScenario.node[97].veinsmobility 	totalDistance 	375.5862768171
scalar MyScenario.node[97].veinsmobility 	totalCO2Emission 	139.68544765198
scalar MyScenario.node[83].appl 	generatedWSMs 	0
scalar MyScenario.node[83].appl 	receivedWSMs 	0
scalar MyScenario.node[83].appl 	generatedBSMs 	0
scalar MyScenario.node[83].appl 	receivedBSMs 	0
scalar MyScenario.node[83].appl 	generatedWSAs 	0
scalar MyScenario.node[83].appl 	receivedWSAs 	0
scalar MyScenario.node[83].nic.phy80211p 	busyTime 	4.2181818181818e-05
scalar MyScenario.node[83].nic.mac1609_4 	ReceivedUnicastPackets 	0
scalar MyScenario.node[83].nic.mac1609_4 	ReceivedBroadcasts 	0
scalar MyScenario.node[83].nic.mac1609_4 	SentPackets 	0
scalar MyScenario.node[83].nic.mac1609_4 	SNIRLostPackets 	8
scalar MyScenario.node[83].nic.mac1609_4 	RXTXLostPackets 	0
scalar MyScenario.node[83].nic.mac1609_4 	TotalLostPackets 	8
scalar MyScenario.node[83].nic.mac1609_4 	DroppedPacketsInMac 	0
scalar MyScenario.node[83].nic.mac1609_4 	TooLittleTime 	0
scalar MyScenario.node[83].nic.mac1609_4 	TimesIntoBackoff 	0
scalar MyScenario.node[83].nic.mac1609_4 	SlotsBackoff 	0
scalar MyScenario.node[83].nic.mac1609_4 	NumInternalContention 	0
scalar MyScenario.node[83].nic.mac1609_4 	totalBusyTime 	0.000696
scalar MyScenario.node[83].veinsmobility 	startTime 	1
scalar MyScenario.node[83].veinsmobility 	totalTime 	43
scalar MyScenario.node[83].veinsmobility 	stopTime 	45
scalar MyScenario.node[83].veinsmobility 	minSpeed 	1.5956736196997
scalar MyScenario.node[83].veinsmobility 	maxSpeed 	13.790099301888
scalar MyScenario.node[83].veinsmobility 	totalDistance 	467.67680898195
scalar MyScenario.node[83].veinsmobility 	totalCO2Emission 	149.60232743424
scalar MyScenario.node[25].appl 	generatedWSMs 	0
scalar MyScenario.node[25].appl 	receivedWSMs 	0
scalar MyScenario.node[25].appl 	generatedBSMs 	0
scalar MyScenario.node[25].appl 	receivedBSMs 	0
scalar MyScenario.node[25].appl 	generatedWSAs 	0
scalar MyScenario.node[25].appl 	receivedWSAs 	0
scalar MyScenario.node[25].nic.phy80211p 	busyTime 	5.2727272727273e-05
scalar MyScenario.node[25].nic.mac1609_4 	ReceivedUnicastPackets 	0
scalar MyScenario.node[25].nic.mac1609_4 	ReceivedBroadcasts 	0
scalar MyScenario.node[25].nic.mac1609_4 	SentPackets 	0
scalar MyScenario.node[25].nic.mac1609_4 	SNIRLostPackets 	10
scalar MyScenario.node[25].nic.mac1609_4 	RXTXLostPackets 	0
scalar MyScenario.node[25].nic.mac1609_4 	TotalLostPackets 	10
scalar MyScenario.node[25].nic.mac1609_4 	DroppedPacketsInMac 	0
scalar MyScenario.node[25].nic.mac1609_4 	TooLittleTime 	0
scalar MyScenario.node[25].nic.mac1609_4 	TimesIntoBackoff 	0
scalar MyScenario.node[25].nic.mac1609_4 	SlotsBackoff 	0
scalar MyScenario.node[25].nic.mac1609_4 	NumInternalContention 	0
scalar MyScenario.node[25].nic.mac1609_4 	totalBusyTime 	0.000696
scalar MyScenario.node[25].veinsmobility 	startTime 	1
scalar MyScenario.node[25].veinsmobility 	totalTime 	43
scalar MyScenario.node[25].veinsmobility 	stopTime 	45
scalar MyScenario.node[25].veinsmobility 	minSpeed 	2.1712462229887
scalar MyScenario.node[25].veinsmobility 	maxSpeed 	13.807630340359
scalar MyScenario.node[25].veinsmobility 	totalDistance 	468.54227305061
scalar MyScenario.node[25].veinsmobility 	totalCO2Emission 	144.39157607734
scalar MyScenario.node[199].appl 	generatedWSMs 	0
scalar MyScenario.node[199].appl 	receivedWSMs 	0
scalar MyScenario.node[199].appl 	generatedBSMs 	0
scalar MyScenario.node[199].appl 	receivedBSMs 	0
scalar MyScenario.node[199].appl 	generatedWSAs 	0
scalar MyScenario.node[199].appl 	receivedWSAs 	0
scalar MyScenario.node[199].nic.phy80211p 	busyTime 	3.8666666666667e-05
scalar MyScenario.node[199].nic.mac1609_4 	ReceivedUnicastPackets 	0
scalar MyScenario.node[199].nic.mac1609_4 	ReceivedBroadcasts 	0
scalar MyScenario.node[199].nic.mac1609_4 	SentPackets 	0
scalar MyScenario.node[199].nic.mac1609_4 	SNIRLostPackets 	7
scalar MyScenario.node[199].nic.mac1609_4 	RXTXLostPackets 	0
scalar MyScenario.node[199].nic.mac1609_4 	TotalLostPackets 	7
scalar MyScenario.node[199].nic.mac1609_4 	DroppedPacketsInMac 	0
scalar MyScenario.node[199].nic.mac1609_4 	TooLittleTime 	0
scalar MyScenario.node[199].nic.mac1609_4 	TimesIntoBackoff 	0
scalar MyScenario.node[199].nic.mac1609_4 	SlotsBackoff 	0
scalar MyScenario.node[199].nic.mac1609_4 	NumInternalContention 	0
scalar MyScenario.node[199].nic.mac1609_4 	totalBusyTime 	0.000696
scalar MyScenario.node[199].veinsmobility 	startTime 	4
scalar MyScenario.node[199].veinsmobility 	totalTime 	41
scalar MyScenario.node[199].veinsmobility 	stopTime 	46
scalar MyScenario.node[199].veinsmobility 	minSpeed 	1.3021076238714
scalar MyScenario.node[199].veinsmobility 	maxSpeed 	13.802382373833
scalar MyScenario.node[199].veinsmobility 	totalDistance 	477.02476386995
scalar MyScenario.node[199].veinsmobility 	totalCO2Emission 	127.58639843733
scalar MyScenario.node[81].appl 	generatedWSMs 	0
scalar MyScenario.node[81].appl 	receivedWSMs 	0
scalar MyScenario.node[81].appl 	generatedBSMs 	0
scalar MyScenario.node[81].appl 	receivedBSMs 	0
scalar MyScenario.node[81].appl 	generatedWSAs 	0
scalar MyScenario.node[81].appl 	receivedWSAs 	0
scalar MyScenario.node[81].nic.phy80211p 	busyTime 	1.5466666666667e-05
scalar MyScenario.node[81].nic.mac1609_4 	ReceivedUnicastPackets 	0
scalar MyScenario.node[81].nic.mac1609_4 	ReceivedBroadcasts 	0
scalar MyScenario.node[81].nic.mac1609_4 	SentPackets 	0
scalar MyScenario.node[81].nic.mac1609_4 	SNIRLostPackets 	3
scalar MyScenario.node[81].nic.mac1609_4 	RXTXLostPackets 	0
scalar MyScenario.node[81].nic.mac1609_4 	TotalLostPackets 	3
scalar MyScenario.node[81].nic.mac1609_4 	DroppedPacketsInMac 	0
scalar MyScenario.node[81].nic.mac1609_4 	TooLittleTime 	0
scalar MyScenario.node[81].nic.mac1609_4 	TimesIntoBackoff 	0
scalar MyScenario.node[81].nic.mac1609_4 	SlotsBackoff 	0
scalar MyScenario.node[81].nic.mac1609_4 	NumInternalContention 	0
scalar MyScenario.node[81].nic.mac1609_4 	totalBusyTime 	0.000464
scalar MyScenario.node[81].veinsmobility 	startTime 	1
scalar MyScenario.node[81].veinsmobility 	totalTime 	44
scalar MyScenario.node[81].veinsmobility 	stopTime 	46
scalar MyScenario.node[81].veinsmobility 	minSpeed 	0.3454142524112
scalar MyScenario.node[81].veinsmobility 	maxSpeed 	13.791810487211
scalar MyScenario.node[81].veinsmobility 	totalDistance 	372.3749069518
scalar MyScenario.node[81].veinsmobility 	totalCO2Emission 	134.64619154449
scalar MyScenario.node[74].appl 	generatedWSMs 	1
scalar MyScenario.node[74].appl 	receivedWSMs 	10
scalar MyScenario.node[74].appl 	generatedBSMs 	0
scalar MyScenario.node[74].appl 	receivedBSMs 	0
scalar MyScenario.node[74].appl 	generatedWSAs 	0
scalar MyScenario.node[74].appl 	receivedWSAs 	0
scalar MyScenario.node[74].nic.phy80211p 	busyTime 	0.00022695652173913
scalar MyScenario.node[74].nic.mac1609_4 	ReceivedUnicastPackets 	0
scalar MyScenario.node[74].nic.mac1609_4 	ReceivedBroadcasts 	10
scalar MyScenario.node[74].nic.mac1609_4 	SentPackets 	1
scalar MyScenario.node[74].nic.mac1609_4 	SNIRLostPackets 	35
scalar MyScenario.node[74].nic.mac1609_4 	RXTXLostPackets 	4
scalar MyScenario.node[74].nic.mac1609_4 	TotalLostPackets 	39
scalar MyScenario.node[74].nic.mac1609_4 	DroppedPacketsInMac 	0
scalar MyScenario.node[74].nic.mac1609_4 	TooLittleTime 	0
scalar MyScenario.node[74].nic.mac1609_4 	TimesIntoBackoff 	1
scalar MyScenario.node[74].nic.mac1609_4 	SlotsBackoff 	2
scalar MyScenario.node[74].nic.mac1609_4 	NumInternalContention 	0
scalar MyScenario.node[74].nic.mac1609_4 	totalBusyTime 	0.005801
scalar MyScenario.node[74].veinsmobility 	startTime 	1
scalar MyScenario.node[74].veinsmobility 	totalTime 	45
scalar MyScenario.node[74].veinsmobility 	stopTime 	47
scalar MyScenario.node[74].veinsmobility 	minSpeed 	1.148990997446
scalar MyScenario.node[74].veinsmobility 	maxSpeed 	13.899592672545
scalar MyScenario.node[74].veinsmobility 	totalDistance 	471.1772768056
scalar MyScenario.node[74].veinsmobility 	totalCO2Emission 	150.32554673349
scalar MyScenario.node[216].appl 	generatedWSMs 	0
scalar MyScenario.node[216].appl 	receivedWSMs 	0
scalar MyScenario.node[216].appl 	generatedBSMs 	0
scalar MyScenario.node[216].appl 	receivedBSMs 	0
scalar MyScenario.node[216].appl 	generatedWSAs 	0
scalar MyScenario.node[216].appl 	receivedWSAs 	0
scalar MyScenario.node[216].nic.phy80211p 	busyTime 	0
scalar MyScenario.node[216].nic.mac1609_4 	ReceivedUnicastPackets 	0
scalar MyScenario.node[216].nic.mac1609_4 	ReceivedBroadcasts 	0
scalar MyScenario.node[216].nic.mac1609_4 	SentPackets 	0
scalar MyScenario.node[216].nic.mac1609_4 	SNIRLostPackets 	0
scalar MyScenario.node[216].nic.mac1609_4 	RXTXLostPackets 	0
scalar MyScenario.node[216].nic.mac1609_4 	TotalLostPackets 	0
scalar MyScenario.node[216].nic.mac1609_4 	DroppedPacketsInMac 	0
scalar MyScenario.node[216].nic.mac1609_4 	TooLittleTime 	0
scalar MyScenario.node[216].nic.mac1609_4 	TimesIntoBackoff 	0
scalar MyScenario.node[216].nic.mac1609_4 	SlotsBackoff 	0
scalar MyScenario.node[216].nic.mac1609_4 	NumInternalContention 	0
scalar MyScenario.node[216].nic.mac1609_4 	totalBusyTime 	0
scalar MyScenario.node[216].veinsmobility 	startTime 	4
scalar MyScenario.node[216].veinsmobility 	totalTime 	42
scalar MyScenario.node[216].veinsmobility 	stopTime 	47
scalar MyScenario.node[216].veinsmobility 	minSpeed 	2.4239140850725
scalar MyScenario.node[216].veinsmobility 	maxSpeed 	13.845859430893
scalar MyScenario.node[216].veinsmobility 	totalDistance 	469.28801827586
scalar MyScenario.node[216].veinsmobility 	totalCO2Emission 	135.72042843614
scalar MyScenario.node[9].appl 	generatedWSMs 	0
scalar MyScenario.node[9].appl 	receivedWSMs 	0
scalar MyScenario.node[9].appl 	generatedBSMs 	0
scalar MyScenario.node[9].appl 	receivedBSMs 	0
scalar MyScenario.node[9].appl 	generatedWSAs 	0
scalar MyScenario.node[9].appl 	receivedWSAs 	0
scalar MyScenario.node[9].nic.phy80211p 	busyTime 	3.8666666666667e-05
scalar MyScenario.node[9].nic.mac1609_4 	ReceivedUnicastPackets 	0
scalar MyScenario.node[9].nic.mac1609_4 	ReceivedBroadcasts 	0
scalar MyScenario.node[9].nic.mac1609_4 	SentPackets 	0
scalar MyScenario.node[9].nic.mac1609_4 	SNIRLostPackets 	8
scalar MyScenario.node[9].nic.mac1609_4 	RXTXLostPackets 	0
scalar MyScenario.node[9].nic.mac1609_4 	TotalLostPackets 	8
scalar MyScenario.node[9].nic.mac1609_4 	DroppedPacketsInMac 	0
scalar MyScenario.node[9].nic.mac1609_4 	TooLittleTime 	0
scalar MyScenario.node[9].nic.mac1609_4 	TimesIntoBackoff 	0
scalar MyScenario.node[9].nic.mac1609_4 	SlotsBackoff 	0
scalar MyScenario.node[9].nic.mac1609_4 	NumInternalContention 	0
scalar MyScenario.node[9].nic.mac1609_4 	totalBusyTime 	0.000464
scalar MyScenario.node[9].veinsmobility 	startTime 	1
scalar MyScenario.node[9].veinsmobility 	totalTime 	47
scalar MyScenario.node[9].veinsmobility 	stopTime 	49
scalar MyScenario.node[9].veinsmobility 	minSpeed 	0.0017957066816686
scalar MyScenario.node[9].veinsmobility 	maxSpeed 	13.696356749767
scalar MyScenario.node[9].veinsmobility 	totalDistance 	459.64290256414
scalar MyScenario.node[9].veinsmobility 	totalCO2Emission 	143.85062896532
scalar MyScenario.node[165].appl 	generatedWSMs 	0
scalar MyScenario.node[165].appl 	receivedWSMs 	0
scalar MyScenario.node[165].appl 	generatedBSMs 	0
scalar MyScenario.node[165].appl 	receivedBSMs 	0
scalar MyScenario.node[165].appl 	generatedWSAs 	0
scalar MyScenario.node[165].appl 	receivedWSAs 	0
scalar MyScenario.node[165].nic.phy80211p 	busyTime 	4.8333333333333e-06
scalar MyScenario.node[165].nic.mac1609_4 	ReceivedUnicastPackets 	0
scalar MyScenario.node[165].nic.mac1609_4 	ReceivedBroadcasts 	0
scalar MyScenario.node[165].nic.mac1609_4 	SentPackets 	0
scalar MyScenario.node[165].nic.mac1609_4 	SNIRLostPackets 	1
scalar MyScenario.node[165].nic.mac1609_4 	RXTXLostPackets 	0
scalar MyScenario.node[165].nic.mac1609_4 	TotalLostPackets 	1
scalar MyScenario.node[165].nic.mac1609_4 	DroppedPacketsInMac 	0
scalar MyScenario.node[165].nic.mac1609_4 	TooLittleTime 	0
scalar MyScenario.node[165].nic.mac1609_4 	TimesIntoBackoff 	0
scalar MyScenario.node[165].nic.mac1609_4 	SlotsBackoff 	0
scalar MyScenario.node[165].nic.mac1609_4 	NumInternalContention 	0
scalar MyScenario.node[165].nic.mac1609_4 	totalBusyTime 	0.000232
scalar MyScenario.node[165].veinsmobility 	startTime 	1
scalar MyScenario.node[165].veinsmobility 	totalTime 	47
scalar MyScenario.node[165].veinsmobility 	stopTime 	49
scalar MyScenario.node[165].veinsmobility 	minSpeed 	2.0626744007459
scalar MyScenario.node[165].veinsmobility 	maxSpeed 	13.890482641757
scalar MyScenario.node[165].veinsmobility 	totalDistance 	583.47380221735
scalar MyScenario.node[165].veinsmobility 	totalCO2Emission 	122.16733162496
scalar MyScenario.node[61].appl 	generatedWSMs 	0
scalar MyScenario.node[61].appl 	receivedWSMs 	0
scalar MyScenario.node[61].appl 	generatedBSMs 	0
scalar MyScenario.node[61].appl 	receivedBSMs 	0
scalar MyScenario.node[61].appl 	generatedWSAs 	0
scalar MyScenario.node[61].appl 	receivedWSAs 	0
scalar MyScenario.node[61].nic.phy80211p 	busyTime 	0
scalar MyScenario.node[61].nic.mac1609_4 	ReceivedUnicastPackets 	0
scalar MyScenario.node[61].nic.mac1609_4 	ReceivedBroadcasts 	0
scalar MyScenario.node[61].nic.mac1609_4 	SentPackets 	0
scalar MyScenario.node[61].nic.mac1609_4 	SNIRLostPackets 	0
scalar MyScenario.node[61].nic.mac1609_4 	RXTXLostPackets 	0
scalar MyScenario.node[61].nic.mac1609_4 	TotalLostPackets 	0
scalar MyScenario.node[61].nic.mac1609_4 	DroppedPacketsInMac 	0
scalar MyScenario.node[61].nic.mac1609_4 	TooLittleTime 	0
scalar MyScenario.node[61].nic.mac1609_4 	TimesIntoBackoff 	0
scalar MyScenario.node[61].nic.mac1609_4 	SlotsBackoff 	0
scalar MyScenario.node[61].nic.mac1609_4 	NumInternalContention 	0
scalar MyScenario.node[61].nic.mac1609_4 	totalBusyTime 	0
scalar MyScenario.node[61].veinsmobility 	startTime 	1
scalar MyScenario.node[61].veinsmobility 	totalTime 	47
scalar MyScenario.node[61].veinsmobility 	stopTime 	49
scalar MyScenario.node[61].veinsmobility 	minSpeed 	2.0841925695771
scalar MyScenario.node[61].veinsmobility 	maxSpeed 	13.896332249534
scalar MyScenario.node[61].veinsmobility 	totalDistance 	567.07717088278
scalar MyScenario.node[61].veinsmobility 	totalCO2Emission 	138.76142377885
scalar MyScenario.node[124].appl 	generatedWSMs 	0
scalar MyScenario.node[124].appl 	receivedWSMs 	0
scalar MyScenario.node[124].appl 	generatedBSMs 	0
scalar MyScenario.node[124].appl 	receivedBSMs 	0
scalar MyScenario.node[124].appl 	generatedWSAs 	0
scalar MyScenario.node[124].appl 	receivedWSAs 	0
scalar MyScenario.node[124].nic.phy80211p 	busyTime 	8.2166666666667e-05
scalar MyScenario.node[124].nic.mac1609_4 	ReceivedUnicastPackets 	0
scalar MyScenario.node[124].nic.mac1609_4 	ReceivedBroadcasts 	0
scalar MyScenario.node[124].nic.mac1609_4 	SentPackets 	0
scalar MyScenario.node[124].nic.mac1609_4 	SNIRLostPackets 	17
scalar MyScenario.node[124].nic.mac1609_4 	RXTXLostPackets 	0
scalar MyScenario.node[124].nic.mac1609_4 	TotalLostPackets 	17
scalar MyScenario.node[124].nic.mac1609_4 	DroppedPacketsInMac 	0
scalar MyScenario.node[124].nic.mac1609_4 	TooLittleTime 	0
scalar MyScenario.node[124].nic.mac1609_4 	TimesIntoBackoff 	0
scalar MyScenario.node[124].nic.mac1609_4 	SlotsBackoff 	0
scalar MyScenario.node[124].nic.mac1609_4 	NumInternalContention 	0
scalar MyScenario.node[124].nic.mac1609_4 	totalBusyTime 	0.001160034186
scalar MyScenario.node[124].veinsmobility 	startTime 	1
scalar MyScenario.node[124].veinsmobility 	totalTime 	47
scalar MyScenario.node[124].veinsmobility 	stopTime 	49
scalar MyScenario.node[124].veinsmobility 	minSpeed 	1.7239382243482
scalar MyScenario.node[124].veinsmobility 	maxSpeed 	13.834043187508
scalar MyScenario.node[124].veinsmobility 	totalDistance 	567.9988304069
scalar MyScenario.node[124].veinsmobility 	totalCO2Emission 	139.73837261411
scalar MyScenario.node[54].appl 	generatedWSMs 	1
scalar MyScenario.node[54].appl 	receivedWSMs 	2
scalar MyScenario.node[54].appl 	generatedBSMs 	0
scalar MyScenario.node[54].appl 	receivedBSMs 	0
scalar MyScenario.node[54].appl 	generatedWSAs 	0
scalar MyScenario.node[54].appl 	receivedWSAs 	0
scalar MyScenario.node[54].nic.phy80211p 	busyTime 	0.0001015
scalar MyScenario.node[54].nic.mac1609_4 	ReceivedUnicastPackets 	0
scalar MyScenario.node[54].nic.mac1609_4 	ReceivedBroadcasts 	2
scalar MyScenario.node[54].nic.mac1609_4 	SentPackets 	1
scalar MyScenario.node[54].nic.mac1609_4 	SNIRLostPackets 	19
scalar MyScenario.node[54].nic.mac1609_4 	RXTXLostPackets 	4
scalar MyScenario.node[54].nic.mac1609_4 	TotalLostPackets 	23
scalar MyScenario.node[54].nic.mac1609_4 	DroppedPacketsInMac 	0
scalar MyScenario.node[54].nic.mac1609_4 	TooLittleTime 	0
scalar MyScenario.node[54].nic.mac1609_4 	TimesIntoBackoff 	1
scalar MyScenario.node[54].nic.mac1609_4 	SlotsBackoff 	3
scalar MyScenario.node[54].nic.mac1609_4 	NumInternalContention 	0
scalar MyScenario.node[54].nic.mac1609_4 	totalBusyTime 	0.002321007511
scalar MyScenario.node[54].veinsmobility 	startTime 	1
scalar MyScenario.node[54].veinsmobility 	totalTime 	47
scalar MyScenario.node[54].veinsmobility 	stopTime 	49
scalar MyScenario.node[54].veinsmobility 	minSpeed 	1.350010176748
scalar MyScenario.node[54].veinsmobility 	maxSpeed 	13.892078659218
scalar MyScenario.node[54].veinsmobility 	totalDistance 	582.60144702333
scalar MyScenario.node[54].veinsmobility 	totalCO2Emission 	126.5829433406
scalar MyScenario.node[44].appl 	generatedWSMs 	1
scalar MyScenario.node[44].appl 	receivedWSMs 	12
scalar MyScenario.node[44].appl 	generatedBSMs 	0
scalar MyScenario.node[44].appl 	receivedBSMs 	0
scalar MyScenario.node[44].appl 	generatedWSAs 	0
scalar MyScenario.node[44].appl 	receivedWSAs 	0
scalar MyScenario.node[44].nic.phy80211p 	busyTime 	0.0002509387755102
scalar MyScenario.node[44].nic.mac1609_4 	ReceivedUnicastPackets 	0
scalar MyScenario.node[44].nic.mac1609_4 	ReceivedBroadcasts 	12
scalar MyScenario.node[44].nic.mac1609_4 	SentPackets 	1
scalar MyScenario.node[44].nic.mac1609_4 	SNIRLostPackets 	41
scalar MyScenario.node[44].nic.mac1609_4 	RXTXLostPackets 	16
scalar MyScenario.node[44].nic.mac1609_4 	TotalLostPackets 	57
scalar MyScenario.node[44].nic.mac1609_4 	DroppedPacketsInMac 	0
scalar MyScenario.node[44].nic.mac1609_4 	TooLittleTime 	0
scalar MyScenario.node[44].nic.mac1609_4 	TimesIntoBackoff 	1
scalar MyScenario.node[44].nic.mac1609_4 	SlotsBackoff 	3
scalar MyScenario.node[44].nic.mac1609_4 	NumInternalContention 	0
scalar MyScenario.node[44].nic.mac1609_4 	totalBusyTime 	0.00556908088
scalar MyScenario.node[44].veinsmobility 	startTime 	1
scalar MyScenario.node[44].veinsmobility 	totalTime 	48
scalar MyScenario.node[44].veinsmobility 	stopTime 	50
scalar MyScenario.node[44].veinsmobility 	minSpeed 	6.7953026776184e-07
scalar MyScenario.node[44].veinsmobility 	maxSpeed 	13.846046990086
scalar MyScenario.node[44].veinsmobility 	totalDistance 	368.74691680037
scalar MyScenario.node[44].veinsmobility 	totalCO2Emission 	129.32869957761
scalar MyScenario.node[0].appl 	generatedWSMs 	17
scalar MyScenario.node[0].appl 	receivedWSMs 	3
scalar MyScenario.node[0].appl 	generatedBSMs 	0
scalar MyScenario.node[0].appl 	receivedBSMs 	0
scalar MyScenario.node[0].appl 	generatedWSAs 	0
scalar MyScenario.node[0].appl 	receivedWSAs 	0
scalar MyScenario.node[0].nic.phy80211p 	busyTime 	0.00033408
scalar MyScenario.node[0].nic.mac1609_4 	ReceivedUnicastPackets 	0
scalar MyScenario.node[0].nic.mac1609_4 	ReceivedBroadcasts 	3
scalar MyScenario.node[0].nic.mac1609_4 	SentPackets 	17
scalar MyScenario.node[0].nic.mac1609_4 	SNIRLostPackets 	69
scalar MyScenario.node[0].nic.mac1609_4 	RXTXLostPackets 	0
scalar MyScenario.node[0].nic.mac1609_4 	TotalLostPackets 	69
scalar MyScenario.node[0].nic.mac1609_4 	DroppedPacketsInMac 	0
scalar MyScenario.node[0].nic.mac1609_4 	TooLittleTime 	0
scalar MyScenario.node[0].nic.mac1609_4 	TimesIntoBackoff 	17
scalar MyScenario.node[0].nic.mac1609_4 	SlotsBackoff 	27
scalar MyScenario.node[0].nic.mac1609_4 	NumInternalContention 	0
scalar MyScenario.node[0].nic.mac1609_4 	totalBusyTime 	0.00674503903
scalar MyScenario.node[0].veinsmobility 	startTime 	1
scalar MyScenario.node[0].veinsmobility 	totalTime 	49
scalar MyScenario.node[0].veinsmobility 	stopTime 	51
scalar MyScenario.node[0].veinsmobility 	minSpeed 	0.57533516105199
scalar MyScenario.node[0].veinsmobility 	maxSpeed 	13.852141798194
scalar MyScenario.node[0].veinsmobility 	totalDistance 	460.77066412837
scalar MyScenario.node[0].veinsmobility 	totalCO2Emission 	138.89901401027
scalar MyScenario.node[12].appl 	generatedWSMs 	1
scalar MyScenario.node[12].appl 	receivedWSMs 	9
scalar MyScenario.node[12].appl 	generatedBSMs 	0
scalar MyScenario.node[12].appl 	receivedBSMs 	0
scalar MyScenario.node[12].appl 	generatedWSAs 	0
scalar MyScenario.node[12].appl 	receivedWSAs 	0
scalar MyScenario.node[12].nic.phy80211p 	busyTime 	0.0001856
scalar MyScenario.node[12].nic.mac1609_4 	ReceivedUnicastPackets 	0
scalar MyScenario.node[12].nic.mac1609_4 	ReceivedBroadcasts 	9
scalar MyScenario.node[12].nic.mac1609_4 	SentPackets 	1
scalar MyScenario.node[12].nic.mac1609_4 	SNIRLostPackets 	31
scalar MyScenario.node[12].nic.mac1609_4 	RXTXLostPackets 	30
scalar MyScenario.node[12].nic.mac1609_4 	TotalLostPackets 	61
scalar MyScenario.node[12].nic.mac1609_4 	DroppedPacketsInMac 	0
scalar MyScenario.node[12].nic.mac1609_4 	TooLittleTime 	0
scalar MyScenario.node[12].nic.mac1609_4 	TimesIntoBackoff 	1
scalar MyScenario.node[12].nic.mac1609_4 	SlotsBackoff 	3
scalar MyScenario.node[12].nic.mac1609_4 	NumInternalContention 	0
scalar MyScenario.node[12].nic.mac1609_4 	totalBusyTime 	0.004177066628
scalar MyScenario.node[12].veinsmobility 	startTime 	1
scalar MyScenario.node[12].veinsmobility 	totalTime 	49
scalar MyScenario.node[12].veinsmobility 	stopTime 	51
scalar MyScenario.node[12].veinsmobility 	minSpeed 	1.424398978753
scalar MyScenario.node[12].veinsmobility 	maxSpeed 	13.866676587774
scalar MyScenario.node[12].veinsmobility 	totalDistance 	567.97693186225
scalar MyScenario.node[12].veinsmobility 	totalCO2Emission 	138.11470007963
scalar MyScenario.node[69].appl 	generatedWSMs 	1
scalar MyScenario.node[69].appl 	receivedWSMs 	1
scalar MyScenario.node[69].appl 	generatedBSMs 	0
scalar MyScenario.node[69].appl 	receivedBSMs 	0
scalar MyScenario.node[69].appl 	generatedWSAs 	0
scalar MyScenario.node[69].appl 	receivedWSAs 	0
scalar MyScenario.node[69].nic.phy80211p 	busyTime 	4.176e-05
scalar MyScenario.node[69].nic.mac1609_4 	ReceivedUnicastPackets 	0
scalar MyScenario.node[69].nic.mac1609_4 	ReceivedBroadcasts 	1
scalar MyScenario.node[69].nic.mac1609_4 	SentPackets 	1
scalar MyScenario.node[69].nic.mac1609_4 	SNIRLostPackets 	8
scalar MyScenario.node[69].nic.mac1609_4 	RXTXLostPackets 	20
scalar MyScenario.node[69].nic.mac1609_4 	TotalLostPackets 	28
scalar MyScenario.node[69].nic.mac1609_4 	DroppedPacketsInMac 	0
scalar MyScenario.node[69].nic.mac1609_4 	TooLittleTime 	0
scalar MyScenario.node[69].nic.mac1609_4 	TimesIntoBackoff 	1
scalar MyScenario.node[69].nic.mac1609_4 	SlotsBackoff 	3
scalar MyScenario.node[69].nic.mac1609_4 	NumInternalContention 	0
scalar MyScenario.node[69].nic.mac1609_4 	totalBusyTime 	0.001161009369
scalar MyScenario.node[69].veinsmobility 	startTime 	1
scalar MyScenario.node[69].veinsmobility 	totalTime 	49
scalar MyScenario.node[69].veinsmobility 	stopTime 	51
scalar MyScenario.node[69].veinsmobility 	minSpeed 	2.4053003768669
scalar MyScenario.node[69].veinsmobility 	maxSpeed 	13.783274849528
scalar MyScenario.node[69].veinsmobility 	totalDistance 	563.46056478069
scalar MyScenario.node[69].veinsmobility 	totalCO2Emission 	156.63458720111
scalar MyScenario.node[27].appl 	generatedWSMs 	1
scalar MyScenario.node[27].appl 	receivedWSMs 	7
scalar MyScenario.node[27].appl 	generatedBSMs 	0
scalar MyScenario.node[27].appl 	receivedBSMs 	0
scalar MyScenario.node[27].appl 	generatedWSAs 	0
scalar MyScenario.node[27].appl 	receivedWSAs 	0
scalar MyScenario.node[27].nic.phy80211p 	busyTime 	9.5529411764706e-05
scalar MyScenario.node[27].nic.mac1609_4 	ReceivedUnicastPackets 	0
scalar MyScenario.node[27].nic.mac1609_4 	ReceivedBroadcasts 	7
scalar MyScenario.node[27].nic.mac1609_4 	SentPackets 	1
scalar MyScenario.node[27].nic.mac1609_4 	SNIRLostPackets 	14
scalar MyScenario.node[27].nic.mac1609_4 	RXTXLostPackets 	15
scalar MyScenario.node[27].nic.mac1609_4 	TotalLostPackets 	29
scalar MyScenario.node[27].nic.mac1609_4 	DroppedPacketsInMac 	0
scalar MyScenario.node[27].nic.mac1609_4 	TooLittleTime 	0
scalar MyScenario.node[27].nic.mac1609_4 	TimesIntoBackoff 	1
scalar MyScenario.node[27].nic.mac1609_4 	SlotsBackoff 	3
scalar MyScenario.node[27].nic.mac1609_4 	NumInternalContention 	0
scalar MyScenario.node[27].nic.mac1609_4 	totalBusyTime 	0.003249026999
scalar MyScenario.node[27].veinsmobility 	startTime 	1
scalar MyScenario.node[27].veinsmobility 	totalTime 	50
scalar MyScenario.node[27].veinsmobility 	stopTime 	52
scalar MyScenario.node[27].veinsmobility 	minSpeed 	1.5443657577978
scalar MyScenario.node[27].veinsmobility 	maxSpeed 	13.852142037312
scalar MyScenario.node[27].veinsmobility 	totalDistance 	570.16251627754
scalar MyScenario.node[27].veinsmobility 	totalCO2Emission 	147.12947483098
scalar MyScenario.node[186].appl 	generatedWSMs 	0
scalar MyScenario.node[186].appl 	receivedWSMs 	0
scalar MyScenario.node[186].appl 	generatedBSMs 	0
scalar MyScenario.node[186].appl 	receivedBSMs 	0
scalar MyScenario.node[186].appl 	generatedWSAs 	0
scalar MyScenario.node[186].appl 	receivedWSAs 	0
scalar MyScenario.node[186].nic.phy80211p 	busyTime 	0
scalar MyScenario.node[186].nic.mac1609_4 	ReceivedUnicastPackets 	0
scalar MyScenario.node[186].nic.mac1609_4 	ReceivedBroadcasts 	0
scalar MyScenario.node[186].nic.mac1609_4 	SentPackets 	0
scalar MyScenario.node[186].nic.mac1609_4 	SNIRLostPackets 	0
scalar MyScenario.node[186].nic.mac1609_4 	RXTXLostPackets 	0
scalar MyScenario.node[186].nic.mac1609_4 	TotalLostPackets 	0
scalar MyScenario.node[186].nic.mac1609_4 	DroppedPacketsInMac 	0
scalar MyScenario.node[186].nic.mac1609_4 	TooLittleTime 	0
scalar MyScenario.node[186].nic.mac1609_4 	TimesIntoBackoff 	0
scalar MyScenario.node[186].nic.mac1609_4 	SlotsBackoff 	0
scalar MyScenario.node[186].nic.mac1609_4 	NumInternalContention 	0
scalar MyScenario.node[186].nic.mac1609_4 	totalBusyTime 	0
scalar MyScenario.node[186].veinsmobility 	startTime 	1
scalar MyScenario.node[186].veinsmobility 	totalTime 	51
scalar MyScenario.node[186].veinsmobility 	stopTime 	53
scalar MyScenario.node[186].veinsmobility 	minSpeed 	1.8499072354985
scalar MyScenario.node[186].veinsmobility 	maxSpeed 	13.86676800889
scalar MyScenario.node[186].veinsmobility 	totalDistance 	559.1898696416
scalar MyScenario.node[186].veinsmobility 	totalCO2Emission 	169.95635196502
scalar MyScenario.node[214].appl 	generatedWSMs 	1
scalar MyScenario.node[214].appl 	receivedWSMs 	2
scalar MyScenario.node[214].appl 	generatedBSMs 	0
scalar MyScenario.node[214].appl 	receivedBSMs 	0
scalar MyScenario.node[214].appl 	generatedWSAs 	0
scalar MyScenario.node[214].appl 	receivedWSAs 	0
scalar MyScenario.node[214].nic.phy80211p 	busyTime 	8.5224489795918e-05
scalar MyScenario.node[214].nic.mac1609_4 	ReceivedUnicastPackets 	0
scalar MyScenario.node[214].nic.mac1609_4 	ReceivedBroadcasts 	2
scalar MyScenario.node[214].nic.mac1609_4 	SentPackets 	1
scalar MyScenario.node[214].nic.mac1609_4 	SNIRLostPackets 	16
scalar MyScenario.node[214].nic.mac1609_4 	RXTXLostPackets 	13
scalar MyScenario.node[214].nic.mac1609_4 	TotalLostPackets 	29
scalar MyScenario.node[214].nic.mac1609_4 	DroppedPacketsInMac 	0
scalar MyScenario.node[214].nic.mac1609_4 	TooLittleTime 	0
scalar MyScenario.node[214].nic.mac1609_4 	TimesIntoBackoff 	1
scalar MyScenario.node[214].nic.mac1609_4 	SlotsBackoff 	0
scalar MyScenario.node[214].nic.mac1609_4 	NumInternalContention 	0
scalar MyScenario.node[214].nic.mac1609_4 	totalBusyTime 	0.002089
scalar MyScenario.node[214].veinsmobility 	startTime 	4
scalar MyScenario.node[214].veinsmobility 	totalTime 	48
scalar MyScenario.node[214].veinsmobility 	stopTime 	53
scalar MyScenario.node[214].veinsmobility 	minSpeed 	6.6148535695299e-05
scalar MyScenario.node[214].veinsmobility 	maxSpeed 	13.857787051075
scalar MyScenario.node[214].veinsmobility 	totalDistance 	483.67160590776
scalar MyScenario.node[214].veinsmobility 	totalCO2Emission 	138.97580498889
scalar MyScenario.node[241].appl 	generatedWSMs 	0
scalar MyScenario.node[241].appl 	receivedWSMs 	0
scalar MyScenario.node[241].appl 	generatedBSMs 	0
scalar MyScenario.node[241].appl 	receivedBSMs 	0
scalar MyScenario.node[241].appl 	generatedWSAs 	0
scalar MyScenario.node[241].appl 	receivedWSAs 	0
scalar MyScenario.node[241].nic.phy80211p 	busyTime 	2.8408163265306e-05
scalar MyScenario.node[241].nic.mac1609_4 	ReceivedUnicastPackets 	0
scalar MyScenario.node[241].nic.mac1609_4 	ReceivedBroadcasts 	0
scalar MyScenario.node[241].nic.mac1609_4 	SentPackets 	0
scalar MyScenario.node[241].nic.mac1609_4 	SNIRLostPackets 	6
scalar MyScenario.node[241].nic.mac1609_4 	RXTXLostPackets 	0
scalar MyScenario.node[241].nic.mac1609_4 	TotalLostPackets 	6
scalar MyScenario.node[241].nic.mac1609_4 	DroppedPacketsInMac 	0
scalar MyScenario.node[241].nic.mac1609_4 	TooLittleTime 	0
scalar MyScenario.node[241].nic.mac1609_4 	TimesIntoBackoff 	0
scalar MyScenario.node[241].nic.mac1609_4 	SlotsBackoff 	0
scalar MyScenario.node[241].nic.mac1609_4 	NumInternalContention 	0
scalar MyScenario.node[241].nic.mac1609_4 	totalBusyTime 	0.000464
scalar MyScenario.node[241].veinsmobility 	startTime 	4
scalar MyScenario.node[241].veinsmobility 	totalTime 	48
scalar MyScenario.node[241].veinsmobility 	stopTime 	53
scalar MyScenario.node[241].veinsmobility 	minSpeed 	1.7794334376696
scalar MyScenario.node[241].veinsmobility 	maxSpeed 	13.836530582258
scalar MyScenario.node[241].veinsmobility 	totalDistance 	572.44714157674
scalar MyScenario.node[241].veinsmobility 	totalCO2Emission 	132.97272204813
scalar MyScenario.node[94].appl 	generatedWSMs 	0
scalar MyScenario.node[94].appl 	receivedWSMs 	0
scalar MyScenario.node[94].appl 	generatedBSMs 	0
scalar MyScenario.node[94].appl 	receivedBSMs 	0
scalar MyScenario.node[94].appl 	generatedWSAs 	0
scalar MyScenario.node[94].appl 	receivedWSAs 	0
scalar MyScenario.node[94].nic.phy80211p 	busyTime 	9.0222222222222e-05
scalar MyScenario.node[94].nic.mac1609_4 	ReceivedUnicastPackets 	0
scalar MyScenario.node[94].nic.mac1609_4 	ReceivedBroadcasts 	0
scalar MyScenario.node[94].nic.mac1609_4 	SentPackets 	0
scalar MyScenario.node[94].nic.mac1609_4 	SNIRLostPackets 	21
scalar MyScenario.node[94].nic.mac1609_4 	RXTXLostPackets 	0
scalar MyScenario.node[94].nic.mac1609_4 	TotalLostPackets 	21
scalar MyScenario.node[94].nic.mac1609_4 	DroppedPacketsInMac 	0
scalar MyScenario.node[94].nic.mac1609_4 	TooLittleTime 	0
scalar MyScenario.node[94].nic.mac1609_4 	TimesIntoBackoff 	0
scalar MyScenario.node[94].nic.mac1609_4 	SlotsBackoff 	0
scalar MyScenario.node[94].nic.mac1609_4 	NumInternalContention 	0
scalar MyScenario.node[94].nic.mac1609_4 	totalBusyTime 	0.00116
scalar MyScenario.node[94].veinsmobility 	startTime 	1
scalar MyScenario.node[94].veinsmobility 	totalTime 	53
scalar MyScenario.node[94].veinsmobility 	stopTime 	55
scalar MyScenario.node[94].veinsmobility 	minSpeed 	2.5783106696559
scalar MyScenario.node[94].veinsmobility 	maxSpeed 	13.886333075236
scalar MyScenario.node[94].veinsmobility 	totalDistance 	673.00825379232
scalar MyScenario.node[94].veinsmobility 	totalCO2Emission 	140.14341556942
scalar MyScenario.node[288].appl 	generatedWSMs 	0
scalar MyScenario.node[288].appl 	receivedWSMs 	0
scalar MyScenario.node[288].appl 	generatedBSMs 	0
scalar MyScenario.node[288].appl 	receivedBSMs 	0
scalar MyScenario.node[288].appl 	generatedWSAs 	0
scalar MyScenario.node[288].appl 	receivedWSAs 	0
scalar MyScenario.node[288].nic.phy80211p 	busyTime 	2.9e-05
scalar MyScenario.node[288].nic.mac1609_4 	ReceivedUnicastPackets 	0
scalar MyScenario.node[288].nic.mac1609_4 	ReceivedBroadcasts 	0
scalar MyScenario.node[288].nic.mac1609_4 	SentPackets 	0
scalar MyScenario.node[288].nic.mac1609_4 	SNIRLostPackets 	6
scalar MyScenario.node[288].nic.mac1609_4 	RXTXLostPackets 	0
scalar MyScenario.node[288].nic.mac1609_4 	TotalLostPackets 	6
scalar MyScenario.node[288].nic.mac1609_4 	DroppedPacketsInMac 	0
scalar MyScenario.node[288].nic.mac1609_4 	TooLittleTime 	0
scalar MyScenario.node[288].nic.mac1609_4 	TimesIntoBackoff 	0
scalar MyScenario.node[288].nic.mac1609_4 	SlotsBackoff 	0
scalar MyScenario.node[288].nic.mac1609_4 	NumInternalContention 	0
scalar MyScenario.node[288].nic.mac1609_4 	totalBusyTime 	0.000464
scalar MyScenario.node[288].veinsmobility 	startTime 	7
scalar MyScenario.node[288].veinsmobility 	totalTime 	47
scalar MyScenario.node[288].veinsmobility 	stopTime 	55
scalar MyScenario.node[288].veinsmobility 	minSpeed 	1.9264944955939
scalar MyScenario.node[288].veinsmobility 	maxSpeed 	13.843318385235
scalar MyScenario.node[288].veinsmobility 	totalDistance 	578.30934147208
scalar MyScenario.node[288].veinsmobility 	totalCO2Emission 	122.49300668127
scalar MyScenario.node[7].appl 	generatedWSMs 	1
scalar MyScenario.node[7].appl 	receivedWSMs 	1
scalar MyScenario.node[7].appl 	generatedBSMs 	0
scalar MyScenario.node[7].appl 	receivedBSMs 	0
scalar MyScenario.node[7].appl 	generatedWSAs 	0
scalar MyScenario.node[7].appl 	receivedWSAs 	0
scalar MyScenario.node[7].nic.phy80211p 	busyTime 	0.0001202962962963
scalar MyScenario.node[7].nic.mac1609_4 	ReceivedUnicastPackets 	0
scalar MyScenario.node[7].nic.mac1609_4 	ReceivedBroadcasts 	1
scalar MyScenario.node[7].nic.mac1609_4 	SentPackets 	1
scalar MyScenario.node[7].nic.mac1609_4 	SNIRLostPackets 	27
scalar MyScenario.node[7].nic.mac1609_4 	RXTXLostPackets 	0
scalar MyScenario.node[7].nic.mac1609_4 	TotalLostPackets 	27
scalar MyScenario.node[7].nic.mac1609_4 	DroppedPacketsInMac 	0
scalar MyScenario.node[7].nic.mac1609_4 	TooLittleTime 	0
scalar MyScenario.node[7].nic.mac1609_4 	TimesIntoBackoff 	1
scalar MyScenario.node[7].nic.mac1609_4 	SlotsBackoff 	2
scalar MyScenario.node[7].nic.mac1609_4 	NumInternalContention 	0
scalar MyScenario.node[7].nic.mac1609_4 	totalBusyTime 	0.001393059633
scalar MyScenario.node[7].veinsmobility 	startTime 	1
scalar MyScenario.node[7].veinsmobility 	totalTime 	53
scalar MyScenario.node[7].veinsmobility 	stopTime 	55
scalar MyScenario.node[7].veinsmobility 	minSpeed 	0.049158852763023
scalar MyScenario.node[7].veinsmobility 	maxSpeed 	13.830387077201
scalar MyScenario.node[7].veinsmobility 	totalDistance 	574.12366686261
scalar MyScenario.node[7].veinsmobility 	totalCO2Emission 	160.4299394938
scalar MyScenario.node[294].appl 	generatedWSMs 	1
scalar MyScenario.node[294].appl 	receivedWSMs 	12
scalar MyScenario.node[294].appl 	generatedBSMs 	0
scalar MyScenario.node[294].appl 	receivedBSMs 	0
scalar MyScenario.node[294].appl 	generatedWSAs 	0
scalar MyScenario.node[294].appl 	receivedWSAs 	0
scalar MyScenario.node[294].nic.phy80211p 	busyTime 	0.00020173913043478
scalar MyScenario.node[294].nic.mac1609_4 	ReceivedUnicastPackets 	0
scalar MyScenario.node[294].nic.mac1609_4 	ReceivedBroadcasts 	12
scalar MyScenario.node[294].nic.mac1609_4 	SentPackets 	1
scalar MyScenario.node[294].nic.mac1609_4 	SNIRLostPackets 	28
scalar MyScenario.node[294].nic.mac1609_4 	RXTXLostPackets 	19
scalar MyScenario.node[294].nic.mac1609_4 	TotalLostPackets 	47
scalar MyScenario.node[294].nic.mac1609_4 	DroppedPacketsInMac 	0
scalar MyScenario.node[294].nic.mac1609_4 	TooLittleTime 	0
scalar MyScenario.node[294].nic.mac1609_4 	TimesIntoBackoff 	1
scalar MyScenario.node[294].nic.mac1609_4 	SlotsBackoff 	1
scalar MyScenario.node[294].nic.mac1609_4 	NumInternalContention 	0
scalar MyScenario.node[294].nic.mac1609_4 	totalBusyTime 	0.005569108843
scalar MyScenario.node[294].veinsmobility 	startTime 	10
scalar MyScenario.node[294].veinsmobility 	totalTime 	45
scalar MyScenario.node[294].veinsmobility 	stopTime 	56
scalar MyScenario.node[294].veinsmobility 	minSpeed 	1.4638178656978e-06
scalar MyScenario.node[294].veinsmobility 	maxSpeed 	13.813511936553
scalar MyScenario.node[294].veinsmobility 	totalDistance 	364.88739074038
scalar MyScenario.node[294].veinsmobility 	totalCO2Emission 	120.05599662464
scalar MyScenario.node[152].appl 	generatedWSMs 	1
scalar MyScenario.node[152].appl 	receivedWSMs 	9
scalar MyScenario.node[152].appl 	generatedBSMs 	0
scalar MyScenario.node[152].appl 	receivedBSMs 	0
scalar MyScenario.node[152].appl 	generatedWSAs 	0
scalar MyScenario.node[152].appl 	receivedWSAs 	0
scalar MyScenario.node[152].nic.phy80211p 	busyTime 	0.00013498181818182
scalar MyScenario.node[152].nic.mac1609_4 	ReceivedUnicastPackets 	0
scalar MyScenario.node[152].nic.mac1609_4 	ReceivedBroadcasts 	9
scalar MyScenario.node[152].nic.mac1609_4 	SentPackets 	1
scalar MyScenario.node[152].nic.mac1609_4 	SNIRLostPackets 	23
scalar MyScenario.node[152].nic.mac1609_4 	RXTXLostPackets 	1
scalar MyScenario.node[152].nic.mac1609_4 	TotalLostPackets 	24
scalar MyScenario.node[152].nic.mac1609_4 	DroppedPacketsInMac 	0
scalar MyScenario.node[152].nic.mac1609_4 	TooLittleTime 	0
scalar MyScenario.node[152].nic.mac1609_4 	TimesIntoBackoff 	1
scalar MyScenario.node[152].nic.mac1609_4 	SlotsBackoff 	2
scalar MyScenario.node[152].nic.mac1609_4 	NumInternalContention 	0
scalar MyScenario.node[152].nic.mac1609_4 	totalBusyTime 	0.003713
scalar MyScenario.node[152].veinsmobility 	startTime 	1
scalar MyScenario.node[152].veinsmobility 	totalTime 	54
scalar MyScenario.node[152].veinsmobility 	stopTime 	56
scalar MyScenario.node[152].veinsmobility 	minSpeed 	1.867697920301
scalar MyScenario.node[152].veinsmobility 	maxSpeed 	13.894784671138
scalar MyScenario.node[152].veinsmobility 	totalDistance 	675.21765226509
scalar MyScenario.node[152].veinsmobility 	totalCO2Emission 	148.82195462886
scalar MyScenario.node[16].appl 	generatedWSMs 	0
scalar MyScenario.node[16].appl 	receivedWSMs 	0
scalar MyScenario.node[16].appl 	generatedBSMs 	0
scalar MyScenario.node[16].appl 	receivedBSMs 	0
scalar MyScenario.node[16].appl 	generatedWSAs 	0
scalar MyScenario.node[16].appl 	receivedWSAs 	0
scalar MyScenario.node[16].nic.phy80211p 	busyTime 	2.9527272727273e-05
scalar MyScenario.node[16].nic.mac1609_4 	ReceivedUnicastPackets 	0
scalar MyScenario.node[16].nic.mac1609_4 	ReceivedBroadcasts 	0
scalar MyScenario.node[16].nic.mac1609_4 	SentPackets 	0
scalar MyScenario.node[16].nic.mac1609_4 	SNIRLostPackets 	7
scalar MyScenario.node[16].nic.mac1609_4 	RXTXLostPackets 	0
scalar MyScenario.node[16].nic.mac1609_4 	TotalLostPackets 	7
scalar MyScenario.node[16].nic.mac1609_4 	DroppedPacketsInMac 	0
scalar MyScenario.node[16].nic.mac1609_4 	TooLittleTime 	0
scalar MyScenario.node[16].nic.mac1609_4 	TimesIntoBackoff 	0
scalar MyScenario.node[16].nic.mac1609_4 	SlotsBackoff 	0
scalar MyScenario.node[16].nic.mac1609_4 	NumInternalContention 	0
scalar MyScenario.node[16].nic.mac1609_4 	totalBusyTime 	0.000464
scalar MyScenario.node[16].veinsmobility 	startTime 	1
scalar MyScenario.node[16].veinsmobility 	totalTime 	54
scalar MyScenario.node[16].veinsmobility 	stopTime 	56
scalar MyScenario.node[16].veinsmobility 	minSpeed 	0.00017338227399653
scalar MyScenario.node[16].veinsmobility 	maxSpeed 	13.874838194903
scalar MyScenario.node[16].veinsmobility 	totalDistance 	466.57189919821
scalar MyScenario.node[16].veinsmobility 	totalCO2Emission 	174.05785756178
scalar MyScenario.node[90].appl 	generatedWSMs 	1
scalar MyScenario.node[90].appl 	receivedWSMs 	3
scalar MyScenario.node[90].appl 	generatedBSMs 	0
scalar MyScenario.node[90].appl 	receivedBSMs 	0
scalar MyScenario.node[90].appl 	generatedWSAs 	0
scalar MyScenario.node[90].appl 	receivedWSAs 	0
scalar MyScenario.node[90].nic.phy80211p 	busyTime 	6.3272727272727e-05
scalar MyScenario.node[90].nic.mac1609_4 	ReceivedUnicastPackets 	0
scalar MyScenario.node[90].nic.mac1609_4 	ReceivedBroadcasts 	3
scalar MyScenario.node[90].nic.mac1609_4 	SentPackets 	1
scalar MyScenario.node[90].nic.mac1609_4 	SNIRLostPackets 	12
scalar MyScenario.node[90].nic.mac1609_4 	RXTXLostPackets 	13
scalar MyScenario.node[90].nic.mac1609_4 	TotalLostPackets 	25
scalar MyScenario.node[90].nic.mac1609_4 	DroppedPacketsInMac 	0
scalar MyScenario.node[90].nic.mac1609_4 	TooLittleTime 	0
scalar MyScenario.node[90].nic.mac1609_4 	TimesIntoBackoff 	1
scalar MyScenario.node[90].nic.mac1609_4 	SlotsBackoff 	1
scalar MyScenario.node[90].nic.mac1609_4 	NumInternalContention 	0
scalar MyScenario.node[90].nic.mac1609_4 	totalBusyTime 	0.002089027104
scalar MyScenario.node[90].veinsmobility 	startTime 	1
scalar MyScenario.node[90].veinsmobility 	totalTime 	54
scalar MyScenario.node[90].veinsmobility 	stopTime 	56
scalar MyScenario.node[90].veinsmobility 	minSpeed 	2.2854176430963
scalar MyScenario.node[90].veinsmobility 	maxSpeed 	13.890215069451
scalar MyScenario.node[90].veinsmobility 	totalDistance 	677.40253514025
scalar MyScenario.node[90].veinsmobility 	totalCO2Emission 	143.74702314436
scalar MyScenario.node[71].appl 	generatedWSMs 	0
scalar MyScenario.node[71].appl 	receivedWSMs 	0
scalar MyScenario.node[71].appl 	generatedBSMs 	0
scalar MyScenario.node[71].appl 	receivedBSMs 	0
scalar MyScenario.node[71].appl 	generatedWSAs 	0
scalar MyScenario.node[71].appl 	receivedWSAs 	0
scalar MyScenario.node[71].nic.phy80211p 	busyTime 	0
scalar MyScenario.node[71].nic.mac1609_4 	ReceivedUnicastPackets 	0
scalar MyScenario.node[71].nic.mac1609_4 	ReceivedBroadcasts 	0
scalar MyScenario.node[71].nic.mac1609_4 	SentPackets 	0
scalar MyScenario.node[71].nic.mac1609_4 	SNIRLostPackets 	0
scalar MyScenario.node[71].nic.mac1609_4 	RXTXLostPackets 	0
scalar MyScenario.node[71].nic.mac1609_4 	TotalLostPackets 	0
scalar MyScenario.node[71].nic.mac1609_4 	DroppedPacketsInMac 	0
scalar MyScenario.node[71].nic.mac1609_4 	TooLittleTime 	0
scalar MyScenario.node[71].nic.mac1609_4 	TimesIntoBackoff 	0
scalar MyScenario.node[71].nic.mac1609_4 	SlotsBackoff 	0
scalar MyScenario.node[71].nic.mac1609_4 	NumInternalContention 	0
scalar MyScenario.node[71].nic.mac1609_4 	totalBusyTime 	0
scalar MyScenario.node[71].veinsmobility 	startTime 	1
scalar MyScenario.node[71].veinsmobility 	totalTime 	54
scalar MyScenario.node[71].veinsmobility 	stopTime 	56
scalar MyScenario.node[71].veinsmobility 	minSpeed 	1.4771120201563
scalar MyScenario.node[71].veinsmobility 	maxSpeed 	13.893113237666
scalar MyScenario.node[71].veinsmobility 	totalDistance 	682.51575756071
scalar MyScenario.node[71].veinsmobility 	totalCO2Emission 	142.81100175476
scalar MyScenario.node[51].appl 	generatedWSMs 	1
scalar MyScenario.node[51].appl 	receivedWSMs 	3
scalar MyScenario.node[51].appl 	generatedBSMs 	0
scalar MyScenario.node[51].appl 	receivedBSMs 	0
scalar MyScenario.node[51].appl 	generatedWSAs 	0
scalar MyScenario.node[51].appl 	receivedWSAs 	0
scalar MyScenario.node[51].nic.phy80211p 	busyTime 	0.00017814285714286
scalar MyScenario.node[51].nic.mac1609_4 	ReceivedUnicastPackets 	0
scalar MyScenario.node[51].nic.mac1609_4 	ReceivedBroadcasts 	3
scalar MyScenario.node[51].nic.mac1609_4 	SentPackets 	1
scalar MyScenario.node[51].nic.mac1609_4 	SNIRLostPackets 	40
scalar MyScenario.node[51].nic.mac1609_4 	RXTXLostPackets 	16
scalar MyScenario.node[51].nic.mac1609_4 	TotalLostPackets 	56
scalar MyScenario.node[51].nic.mac1609_4 	DroppedPacketsInMac 	0
scalar MyScenario.node[51].nic.mac1609_4 	TooLittleTime 	0
scalar MyScenario.node[51].nic.mac1609_4 	TimesIntoBackoff 	1
scalar MyScenario.node[51].nic.mac1609_4 	SlotsBackoff 	1
scalar MyScenario.node[51].nic.mac1609_4 	NumInternalContention 	0
scalar MyScenario.node[51].nic.mac1609_4 	totalBusyTime 	0.004177168443
scalar MyScenario.node[51].veinsmobility 	startTime 	1
scalar MyScenario.node[51].veinsmobility 	totalTime 	55
scalar MyScenario.node[51].veinsmobility 	stopTime 	57
scalar MyScenario.node[51].veinsmobility 	minSpeed 	0
scalar MyScenario.node[51].veinsmobility 	maxSpeed 	13.85285201706
scalar MyScenario.node[51].veinsmobility 	totalDistance 	367.77956172297
scalar MyScenario.node[51].veinsmobility 	totalCO2Emission 	132.46155928553
scalar MyScenario.node[177].appl 	generatedWSMs 	0
scalar MyScenario.node[177].appl 	receivedWSMs 	0
scalar MyScenario.node[177].appl 	generatedBSMs 	0
scalar MyScenario.node[177].appl 	receivedBSMs 	0
scalar MyScenario.node[177].appl 	generatedWSAs 	0
scalar MyScenario.node[177].appl 	receivedWSAs 	0
scalar MyScenario.node[177].nic.phy80211p 	busyTime 	4.4771929824561e-05
scalar MyScenario.node[177].nic.mac1609_4 	ReceivedUnicastPackets 	0
scalar MyScenario.node[177].nic.mac1609_4 	ReceivedBroadcasts 	0
scalar MyScenario.node[177].nic.mac1609_4 	SentPackets 	0
scalar MyScenario.node[177].nic.mac1609_4 	SNIRLostPackets 	11
scalar MyScenario.node[177].nic.mac1609_4 	RXTXLostPackets 	0
scalar MyScenario.node[177].nic.mac1609_4 	TotalLostPackets 	11
scalar MyScenario.node[177].nic.mac1609_4 	DroppedPacketsInMac 	0
scalar MyScenario.node[177].nic.mac1609_4 	TooLittleTime 	0
scalar MyScenario.node[177].nic.mac1609_4 	TimesIntoBackoff 	0
scalar MyScenario.node[177].nic.mac1609_4 	SlotsBackoff 	0
scalar MyScenario.node[177].nic.mac1609_4 	NumInternalContention 	0
scalar MyScenario.node[177].nic.mac1609_4 	totalBusyTime 	0.000464
scalar MyScenario.node[177].veinsmobility 	startTime 	1
scalar MyScenario.node[177].veinsmobility 	totalTime 	56
scalar MyScenario.node[177].veinsmobility 	stopTime 	58
scalar MyScenario.node[177].veinsmobility 	minSpeed 	0.048987958229876
scalar MyScenario.node[177].veinsmobility 	maxSpeed 	13.88598593385
scalar MyScenario.node[177].veinsmobility 	totalDistance 	568.04512208032
scalar MyScenario.node[177].veinsmobility 	totalCO2Emission 	180.05572909507
scalar MyScenario.node[91].appl 	generatedWSMs 	1
scalar MyScenario.node[91].appl 	receivedWSMs 	4
scalar MyScenario.node[91].appl 	generatedBSMs 	0
scalar MyScenario.node[91].appl 	receivedBSMs 	0
scalar MyScenario.node[91].appl 	generatedWSAs 	0
scalar MyScenario.node[91].appl 	receivedWSAs 	0
scalar MyScenario.node[91].nic.phy80211p 	busyTime 	0.000152
scalar MyScenario.node[91].nic.mac1609_4 	ReceivedUnicastPackets 	0
scalar MyScenario.node[91].nic.mac1609_4 	ReceivedBroadcasts 	4
scalar MyScenario.node[91].nic.mac1609_4 	SentPackets 	1
scalar MyScenario.node[91].nic.mac1609_4 	SNIRLostPackets 	34
scalar MyScenario.node[91].nic.mac1609_4 	RXTXLostPackets 	19
scalar MyScenario.node[91].nic.mac1609_4 	TotalLostPackets 	53
scalar MyScenario.node[91].nic.mac1609_4 	DroppedPacketsInMac 	0
scalar MyScenario.node[91].nic.mac1609_4 	TooLittleTime 	0
scalar MyScenario.node[91].nic.mac1609_4 	TimesIntoBackoff 	1
scalar MyScenario.node[91].nic.mac1609_4 	SlotsBackoff 	0
scalar MyScenario.node[91].nic.mac1609_4 	NumInternalContention 	0
scalar MyScenario.node[91].nic.mac1609_4 	totalBusyTime 	0.003945177114
scalar MyScenario.node[91].veinsmobility 	startTime 	1
scalar MyScenario.node[91].veinsmobility 	totalTime 	57
scalar MyScenario.node[91].veinsmobility 	stopTime 	59
scalar MyScenario.node[91].veinsmobility 	minSpeed 	0.3593114038915
scalar MyScenario.node[91].veinsmobility 	maxSpeed 	13.885130513716
scalar MyScenario.node[91].veinsmobility 	totalDistance 	572.80097647274
scalar MyScenario.node[91].veinsmobility 	totalCO2Emission 	184.67777664187
scalar MyScenario.node[224].appl 	generatedWSMs 	1
scalar MyScenario.node[224].appl 	receivedWSMs 	7
scalar MyScenario.node[224].appl 	generatedBSMs 	0
scalar MyScenario.node[224].appl 	receivedBSMs 	0
scalar MyScenario.node[224].appl 	generatedWSAs 	0
scalar MyScenario.node[224].appl 	receivedWSAs 	0
scalar MyScenario.node[224].nic.phy80211p 	busyTime 	0.00012232727272727
scalar MyScenario.node[224].nic.mac1609_4 	ReceivedUnicastPackets 	0
scalar MyScenario.node[224].nic.mac1609_4 	ReceivedBroadcasts 	7
scalar MyScenario.node[224].nic.mac1609_4 	SentPackets 	1
scalar MyScenario.node[224].nic.mac1609_4 	SNIRLostPackets 	22
scalar MyScenario.node[224].nic.mac1609_4 	RXTXLostPackets 	19
scalar MyScenario.node[224].nic.mac1609_4 	TotalLostPackets 	41
scalar MyScenario.node[224].nic.mac1609_4 	DroppedPacketsInMac 	0
scalar MyScenario.node[224].nic.mac1609_4 	TooLittleTime 	0
scalar MyScenario.node[224].nic.mac1609_4 	TimesIntoBackoff 	1
scalar MyScenario.node[224].nic.mac1609_4 	SlotsBackoff 	1
scalar MyScenario.node[224].nic.mac1609_4 	NumInternalContention 	0
scalar MyScenario.node[224].nic.mac1609_4 	totalBusyTime 	0.003713165369
scalar MyScenario.node[224].veinsmobility 	startTime 	4
scalar MyScenario.node[224].veinsmobility 	totalTime 	54
scalar MyScenario.node[224].veinsmobility 	stopTime 	59
scalar MyScenario.node[224].veinsmobility 	minSpeed 	0.00021050697390235
scalar MyScenario.node[224].veinsmobility 	maxSpeed 	13.860792714218
scalar MyScenario.node[224].veinsmobility 	totalDistance 	464.07109935461
scalar MyScenario.node[224].veinsmobility 	totalCO2Emission 	158.70544906137
scalar MyScenario.node[11].appl 	generatedWSMs 	0
scalar MyScenario.node[11].appl 	receivedWSMs 	0
scalar MyScenario.node[11].appl 	generatedBSMs 	0
scalar MyScenario.node[11].appl 	receivedBSMs 	0
scalar MyScenario.node[11].appl 	generatedWSAs 	0
scalar MyScenario.node[11].appl 	receivedWSAs 	0
scalar MyScenario.node[11].nic.phy80211p 	busyTime 	0
scalar MyScenario.node[11].nic.mac1609_4 	ReceivedUnicastPackets 	0
scalar MyScenario.node[11].nic.mac1609_4 	ReceivedBroadcasts 	0
scalar MyScenario.node[11].nic.mac1609_4 	SentPackets 	0
scalar MyScenario.node[11].nic.mac1609_4 	SNIRLostPackets 	0
scalar MyScenario.node[11].nic.mac1609_4 	RXTXLostPackets 	0
scalar MyScenario.node[11].nic.mac1609_4 	TotalLostPackets 	0
scalar MyScenario.node[11].nic.mac1609_4 	DroppedPacketsInMac 	0
scalar MyScenario.node[11].nic.mac1609_4 	TooLittleTime 	0
scalar MyScenario.node[11].nic.mac1609_4 	TimesIntoBackoff 	0
scalar MyScenario.node[11].nic.mac1609_4 	SlotsBackoff 	0
scalar MyScenario.node[11].nic.mac1609_4 	NumInternalContention 	0
scalar MyScenario.node[11].nic.mac1609_4 	totalBusyTime 	0
scalar MyScenario.node[11].veinsmobility 	startTime 	1
scalar MyScenario.node[11].veinsmobility 	totalTime 	57
scalar MyScenario.node[11].veinsmobility 	stopTime 	59
scalar MyScenario.node[11].veinsmobility 	minSpeed 	2.4165876657469
scalar MyScenario.node[11].veinsmobility 	maxSpeed 	13.830268657953
scalar MyScenario.node[11].veinsmobility 	totalDistance 	668.96300464418
scalar MyScenario.node[11].veinsmobility 	totalCO2Emission 	177.18253258846
scalar MyScenario.node[24].appl 	generatedWSMs 	1
scalar MyScenario.node[24].appl 	receivedWSMs 	5
scalar MyScenario.node[24].appl 	generatedBSMs 	0
scalar MyScenario.node[24].appl 	receivedBSMs 	0
scalar MyScenario.node[24].appl 	generatedWSAs 	0
scalar MyScenario.node[24].appl 	receivedWSAs 	0
scalar MyScenario.node[24].nic.phy80211p 	busyTime 	9.2e-05
scalar MyScenario.node[24].nic.mac1609_4 	ReceivedUnicastPackets 	0
scalar MyScenario.node[24].nic.mac1609_4 	ReceivedBroadcasts 	5
scalar MyScenario.node[24].nic.mac1609_4 	SentPackets 	1
scalar MyScenario.node[24].nic.mac1609_4 	SNIRLostPackets 	18
scalar MyScenario.node[24].nic.mac1609_4 	RXTXLostPackets 	11
scalar MyScenario.node[24].nic.mac1609_4 	TotalLostPackets 	29
scalar MyScenario.node[24].nic.mac1609_4 	DroppedPacketsInMac 	0
scalar MyScenario.node[24].nic.mac1609_4 	TooLittleTime 	0
scalar MyScenario.node[24].nic.mac1609_4 	TimesIntoBackoff 	1
scalar MyScenario.node[24].nic.mac1609_4 	SlotsBackoff 	0
scalar MyScenario.node[24].nic.mac1609_4 	NumInternalContention 	0
scalar MyScenario.node[24].nic.mac1609_4 	totalBusyTime 	0.003017109734
scalar MyScenario.node[24].veinsmobility 	startTime 	1
scalar MyScenario.node[24].veinsmobility 	totalTime 	57
scalar MyScenario.node[24].veinsmobility 	stopTime 	59
scalar MyScenario.node[24].veinsmobility 	minSpeed 	1.3312500913627
scalar MyScenario.node[24].veinsmobility 	maxSpeed 	13.882527797949
scalar MyScenario.node[24].veinsmobility 	totalDistance 	679.77059929079
scalar MyScenario.node[24].veinsmobility 	totalCO2Emission 	175.74649554329
scalar MyScenario.node[2].appl 	generatedWSMs 	1
scalar MyScenario.node[2].appl 	receivedWSMs 	2
scalar MyScenario.node[2].appl 	generatedBSMs 	0
scalar MyScenario.node[2].appl 	receivedBSMs 	0
scalar MyScenario.node[2].appl 	generatedWSAs 	0
scalar MyScenario.node[2].appl 	receivedWSAs 	0
scalar MyScenario.node[2].nic.phy80211p 	busyTime 	0.0001415593220339
scalar MyScenario.node[2].nic.mac1609_4 	ReceivedUnicastPackets 	0
scalar MyScenario.node[2].nic.mac1609_4 	ReceivedBroadcasts 	2
scalar MyScenario.node[2].nic.mac1609_4 	SentPackets 	1
scalar MyScenario.node[2].nic.mac1609_4 	SNIRLostPackets 	34
scalar MyScenario.node[2].nic.mac1609_4 	RXTXLostPackets 	1
scalar MyScenario.node[2].nic.mac1609_4 	TotalLostPackets 	35
scalar MyScenario.node[2].nic.mac1609_4 	DroppedPacketsInMac 	0
scalar MyScenario.node[2].nic.mac1609_4 	TooLittleTime 	0
scalar MyScenario.node[2].nic.mac1609_4 	TimesIntoBackoff 	1
scalar MyScenario.node[2].nic.mac1609_4 	SlotsBackoff 	3
scalar MyScenario.node[2].nic.mac1609_4 	NumInternalContention 	0
scalar MyScenario.node[2].nic.mac1609_4 	totalBusyTime 	0.003249
scalar MyScenario.node[2].veinsmobility 	startTime 	1
scalar MyScenario.node[2].veinsmobility 	totalTime 	58
scalar MyScenario.node[2].veinsmobility 	stopTime 	60
scalar MyScenario.node[2].veinsmobility 	minSpeed 	0.015833293885836
scalar MyScenario.node[2].veinsmobility 	maxSpeed 	13.859593773657
scalar MyScenario.node[2].veinsmobility 	totalDistance 	581.98703531706
scalar MyScenario.node[2].veinsmobility 	totalCO2Emission 	178.335435526
scalar MyScenario.node[26].appl 	generatedWSMs 	1
scalar MyScenario.node[26].appl 	receivedWSMs 	11
scalar MyScenario.node[26].appl 	generatedBSMs 	0
scalar MyScenario.node[26].appl 	receivedBSMs 	0
scalar MyScenario.node[26].appl 	generatedWSAs 	0
scalar MyScenario.node[26].appl 	receivedWSAs 	0
scalar MyScenario.node[26].nic.phy80211p 	busyTime 	0.00016908474576271
scalar MyScenario.node[26].nic.mac1609_4 	ReceivedUnicastPackets 	0
scalar MyScenario.node[26].nic.mac1609_4 	ReceivedBroadcasts 	11
scalar MyScenario.node[26].nic.mac1609_4 	SentPackets 	1
scalar MyScenario.node[26].nic.mac1609_4 	SNIRLostPackets 	32
scalar MyScenario.node[26].nic.mac1609_4 	RXTXLostPackets 	11
scalar MyScenario.node[26].nic.mac1609_4 	TotalLostPackets 	43
scalar MyScenario.node[26].nic.mac1609_4 	DroppedPacketsInMac 	0
scalar MyScenario.node[26].nic.mac1609_4 	TooLittleTime 	0
scalar MyScenario.node[26].nic.mac1609_4 	TimesIntoBackoff 	1
scalar MyScenario.node[26].nic.mac1609_4 	SlotsBackoff 	0
scalar MyScenario.node[26].nic.mac1609_4 	NumInternalContention 	0
scalar MyScenario.node[26].nic.mac1609_4 	totalBusyTime 	0.005569
scalar MyScenario.node[26].veinsmobility 	startTime 	1
scalar MyScenario.node[26].veinsmobility 	totalTime 	58
scalar MyScenario.node[26].veinsmobility 	stopTime 	60
scalar MyScenario.node[26].veinsmobility 	minSpeed 	1.5529173417017
scalar MyScenario.node[26].veinsmobility 	maxSpeed 	13.855781895225
scalar MyScenario.node[26].veinsmobility 	totalDistance 	665.36228007906
scalar MyScenario.node[26].veinsmobility 	totalCO2Emission 	180.57353909549
scalar MyScenario.node[32].appl 	generatedWSMs 	1
scalar MyScenario.node[32].appl 	receivedWSMs 	7
scalar MyScenario.node[32].appl 	generatedBSMs 	0
scalar MyScenario.node[32].appl 	receivedBSMs 	0
scalar MyScenario.node[32].appl 	generatedWSAs 	0
scalar MyScenario.node[32].appl 	receivedWSAs 	0
scalar MyScenario.node[32].nic.phy80211p 	busyTime 	0.00013762711864407
scalar MyScenario.node[32].nic.mac1609_4 	ReceivedUnicastPackets 	0
scalar MyScenario.node[32].nic.mac1609_4 	ReceivedBroadcasts 	7
scalar MyScenario.node[32].nic.mac1609_4 	SentPackets 	1
[...]
scalar MyScenario.node[248].nic.mac1609_4 	DroppedPacketsInMac 	0
scalar MyScenario.node[248].nic.mac1609_4 	TooLittleTime 	0
scalar MyScenario.node[248].nic.mac1609_4 	TimesIntoBackoff 	1
scalar MyScenario.node[248].nic.mac1609_4 	SlotsBackoff 	1
scalar MyScenario.node[248].nic.mac1609_4 	NumInternalContention 	0
scalar MyScenario.node[248].nic.mac1609_4 	totalBusyTime 	0.002321018039
scalar MyScenario.node[248].veinsmobility 	startTime 	4
scalar MyScenario.node[248].veinsmobility 	totalTime 	150
scalar MyScenario.node[248].veinsmobility 	stopTime 	155
scalar MyScenario.node[248].veinsmobility 	minSpeed 	1.6341540769113e-09
scalar MyScenario.node[248].veinsmobility 	maxSpeed 	13.856674491707
scalar MyScenario.node[248].veinsmobility 	totalDistance 	977.50626791745
scalar MyScenario.node[248].veinsmobility 	totalCO2Emission 	392.95927773657
scalar MyScenario.node[125].appl 	generatedWSMs 	1
scalar MyScenario.node[125].appl 	receivedWSMs 	5
scalar MyScenario.node[125].appl 	generatedBSMs 	0
scalar MyScenario.node[125].appl 	receivedBSMs 	0
scalar MyScenario.node[125].appl 	generatedWSAs 	0
scalar MyScenario.node[125].appl 	receivedWSAs 	0
scalar MyScenario.node[125].nic.phy80211p 	busyTime 	1.4683544303797e-05
scalar MyScenario.node[125].nic.mac1609_4 	ReceivedUnicastPackets 	0
scalar MyScenario.node[125].nic.mac1609_4 	ReceivedBroadcasts 	5
scalar MyScenario.node[125].nic.mac1609_4 	SentPackets 	1
scalar MyScenario.node[125].nic.mac1609_4 	SNIRLostPackets 	5
scalar MyScenario.node[125].nic.mac1609_4 	RXTXLostPackets 	10
scalar MyScenario.node[125].nic.mac1609_4 	TotalLostPackets 	15
scalar MyScenario.node[125].nic.mac1609_4 	DroppedPacketsInMac 	0
scalar MyScenario.node[125].nic.mac1609_4 	TooLittleTime 	0
scalar MyScenario.node[125].nic.mac1609_4 	TimesIntoBackoff 	1
scalar MyScenario.node[125].nic.mac1609_4 	SlotsBackoff 	0
scalar MyScenario.node[125].nic.mac1609_4 	NumInternalContention 	0
scalar MyScenario.node[125].nic.mac1609_4 	totalBusyTime 	0.002089
scalar MyScenario.node[125].veinsmobility 	startTime 	1
scalar MyScenario.node[125].veinsmobility 	totalTime 	157
scalar MyScenario.node[125].veinsmobility 	stopTime 	159
scalar MyScenario.node[125].veinsmobility 	minSpeed 	0.00024072366231844
scalar MyScenario.node[125].veinsmobility 	maxSpeed 	13.887617485016
scalar MyScenario.node[125].veinsmobility 	totalDistance 	1668.4255437259
scalar MyScenario.node[125].veinsmobility 	totalCO2Emission 	462.40684668185
scalar MyScenario.node[213].appl 	generatedWSMs 	1
scalar MyScenario.node[213].appl 	receivedWSMs 	1
scalar MyScenario.node[213].appl 	generatedBSMs 	0
scalar MyScenario.node[213].appl 	receivedBSMs 	0
scalar MyScenario.node[213].appl 	generatedWSAs 	0
scalar MyScenario.node[213].appl 	receivedWSAs 	0
scalar MyScenario.node[213].nic.phy80211p 	busyTime 	2.0954838709677e-05
scalar MyScenario.node[213].nic.mac1609_4 	ReceivedUnicastPackets 	0
scalar MyScenario.node[213].nic.mac1609_4 	ReceivedBroadcasts 	1
scalar MyScenario.node[213].nic.mac1609_4 	SentPackets 	1
scalar MyScenario.node[213].nic.mac1609_4 	SNIRLostPackets 	13
scalar MyScenario.node[213].nic.mac1609_4 	RXTXLostPackets 	5
scalar MyScenario.node[213].nic.mac1609_4 	TotalLostPackets 	18
scalar MyScenario.node[213].nic.mac1609_4 	DroppedPacketsInMac 	0
scalar MyScenario.node[213].nic.mac1609_4 	TooLittleTime 	0
scalar MyScenario.node[213].nic.mac1609_4 	TimesIntoBackoff 	1
scalar MyScenario.node[213].nic.mac1609_4 	SlotsBackoff 	3
scalar MyScenario.node[213].nic.mac1609_4 	NumInternalContention 	0
scalar MyScenario.node[213].nic.mac1609_4 	totalBusyTime 	0.001393006368
scalar MyScenario.node[213].veinsmobility 	startTime 	4
scalar MyScenario.node[213].veinsmobility 	totalTime 	154
scalar MyScenario.node[213].veinsmobility 	stopTime 	159
scalar MyScenario.node[213].veinsmobility 	minSpeed 	3.4128831188839e-05
scalar MyScenario.node[213].veinsmobility 	maxSpeed 	13.872096880223
scalar MyScenario.node[213].veinsmobility 	totalDistance 	1171.0663961476
scalar MyScenario.node[213].veinsmobility 	totalCO2Emission 	426.78679132446
scalar MyScenario.node[221].appl 	generatedWSMs 	0
scalar MyScenario.node[221].appl 	receivedWSMs 	0
scalar MyScenario.node[221].appl 	generatedBSMs 	0
scalar MyScenario.node[221].appl 	receivedBSMs 	0
scalar MyScenario.node[221].appl 	generatedWSAs 	0
scalar MyScenario.node[221].appl 	receivedWSAs 	0
scalar MyScenario.node[221].nic.phy80211p 	busyTime 	1.3215189873418e-05
scalar MyScenario.node[221].nic.mac1609_4 	ReceivedUnicastPackets 	0
scalar MyScenario.node[221].nic.mac1609_4 	ReceivedBroadcasts 	0
scalar MyScenario.node[221].nic.mac1609_4 	SentPackets 	0
scalar MyScenario.node[221].nic.mac1609_4 	SNIRLostPackets 	9
scalar MyScenario.node[221].nic.mac1609_4 	RXTXLostPackets 	0
scalar MyScenario.node[221].nic.mac1609_4 	TotalLostPackets 	9
scalar MyScenario.node[221].nic.mac1609_4 	DroppedPacketsInMac 	0
scalar MyScenario.node[221].nic.mac1609_4 	TooLittleTime 	0
scalar MyScenario.node[221].nic.mac1609_4 	TimesIntoBackoff 	0
scalar MyScenario.node[221].nic.mac1609_4 	SlotsBackoff 	0
scalar MyScenario.node[221].nic.mac1609_4 	NumInternalContention 	0
scalar MyScenario.node[221].nic.mac1609_4 	totalBusyTime 	0.00116
scalar MyScenario.node[221].veinsmobility 	startTime 	4
scalar MyScenario.node[221].veinsmobility 	totalTime 	157
scalar MyScenario.node[221].veinsmobility 	stopTime 	162
scalar MyScenario.node[221].veinsmobility 	minSpeed 	0.0697662631278
scalar MyScenario.node[221].veinsmobility 	maxSpeed 	13.892069248902
scalar MyScenario.node[221].veinsmobility 	totalDistance 	1466.6638164614
scalar MyScenario.node[221].veinsmobility 	totalCO2Emission 	435.24920207836
scalar MyScenario.node[22].appl 	generatedWSMs 	0
scalar MyScenario.node[22].appl 	receivedWSMs 	0
scalar MyScenario.node[22].appl 	generatedBSMs 	0
scalar MyScenario.node[22].appl 	receivedBSMs 	0
scalar MyScenario.node[22].appl 	generatedWSAs 	0
scalar MyScenario.node[22].appl 	receivedWSAs 	0
scalar MyScenario.node[22].nic.phy80211p 	busyTime 	1.2888888888889e-05
scalar MyScenario.node[22].nic.mac1609_4 	ReceivedUnicastPackets 	0
scalar MyScenario.node[22].nic.mac1609_4 	ReceivedBroadcasts 	0
scalar MyScenario.node[22].nic.mac1609_4 	SentPackets 	0
scalar MyScenario.node[22].nic.mac1609_4 	SNIRLostPackets 	9
scalar MyScenario.node[22].nic.mac1609_4 	RXTXLostPackets 	0
scalar MyScenario.node[22].nic.mac1609_4 	TotalLostPackets 	9
scalar MyScenario.node[22].nic.mac1609_4 	DroppedPacketsInMac 	0
scalar MyScenario.node[22].nic.mac1609_4 	TooLittleTime 	0
scalar MyScenario.node[22].nic.mac1609_4 	TimesIntoBackoff 	0
scalar MyScenario.node[22].nic.mac1609_4 	SlotsBackoff 	0
scalar MyScenario.node[22].nic.mac1609_4 	NumInternalContention 	0
scalar MyScenario.node[22].nic.mac1609_4 	totalBusyTime 	0.000928
scalar MyScenario.node[22].veinsmobility 	startTime 	1
scalar MyScenario.node[22].veinsmobility 	totalTime 	161
scalar MyScenario.node[22].veinsmobility 	stopTime 	163
scalar MyScenario.node[22].veinsmobility 	minSpeed 	0.038243066378508
scalar MyScenario.node[22].veinsmobility 	maxSpeed 	13.887727549393
scalar MyScenario.node[22].veinsmobility 	totalDistance 	1473.3948464965
scalar MyScenario.node[22].veinsmobility 	totalCO2Emission 	482.40331673246
scalar MyScenario.node[223].appl 	generatedWSMs 	0
scalar MyScenario.node[223].appl 	receivedWSMs 	0
scalar MyScenario.node[223].appl 	generatedBSMs 	0
scalar MyScenario.node[223].appl 	receivedBSMs 	0
scalar MyScenario.node[223].appl 	generatedWSAs 	0
scalar MyScenario.node[223].appl 	receivedWSAs 	0
scalar MyScenario.node[223].nic.phy80211p 	busyTime 	0
scalar MyScenario.node[223].nic.mac1609_4 	ReceivedUnicastPackets 	0
scalar MyScenario.node[223].nic.mac1609_4 	ReceivedBroadcasts 	0
scalar MyScenario.node[223].nic.mac1609_4 	SentPackets 	0
scalar MyScenario.node[223].nic.mac1609_4 	SNIRLostPackets 	0
scalar MyScenario.node[223].nic.mac1609_4 	RXTXLostPackets 	0
scalar MyScenario.node[223].nic.mac1609_4 	TotalLostPackets 	0
scalar MyScenario.node[223].nic.mac1609_4 	DroppedPacketsInMac 	0
scalar MyScenario.node[223].nic.mac1609_4 	TooLittleTime 	0
scalar MyScenario.node[223].nic.mac1609_4 	TimesIntoBackoff 	0
scalar MyScenario.node[223].nic.mac1609_4 	SlotsBackoff 	0
scalar MyScenario.node[223].nic.mac1609_4 	NumInternalContention 	0
scalar MyScenario.node[223].nic.mac1609_4 	totalBusyTime 	0
scalar MyScenario.node[223].veinsmobility 	startTime 	4
scalar MyScenario.node[223].veinsmobility 	totalTime 	162
scalar MyScenario.node[223].veinsmobility 	stopTime 	167
scalar MyScenario.node[223].veinsmobility 	minSpeed 	1.6898089677385e-10
scalar MyScenario.node[223].veinsmobility 	maxSpeed 	13.897393902694
scalar MyScenario.node[223].veinsmobility 	totalDistance 	1164.0427958625
scalar MyScenario.node[223].veinsmobility 	totalCO2Emission 	460.04801408851
scalar MyScenario.node[132].appl 	generatedWSMs 	0
scalar MyScenario.node[132].appl 	receivedWSMs 	0
scalar MyScenario.node[132].appl 	generatedBSMs 	0
scalar MyScenario.node[132].appl 	receivedBSMs 	0
scalar MyScenario.node[132].appl 	generatedWSAs 	0
scalar MyScenario.node[132].appl 	receivedWSAs 	0
scalar MyScenario.node[132].nic.phy80211p 	busyTime 	2.222754491018e-05
scalar MyScenario.node[132].nic.mac1609_4 	ReceivedUnicastPackets 	0
scalar MyScenario.node[132].nic.mac1609_4 	ReceivedBroadcasts 	0
scalar MyScenario.node[132].nic.mac1609_4 	SentPackets 	0
scalar MyScenario.node[132].nic.mac1609_4 	SNIRLostPackets 	16
scalar MyScenario.node[132].nic.mac1609_4 	RXTXLostPackets 	0
scalar MyScenario.node[132].nic.mac1609_4 	TotalLostPackets 	16
scalar MyScenario.node[132].nic.mac1609_4 	DroppedPacketsInMac 	0
scalar MyScenario.node[132].nic.mac1609_4 	TooLittleTime 	0
scalar MyScenario.node[132].nic.mac1609_4 	TimesIntoBackoff 	0
scalar MyScenario.node[132].nic.mac1609_4 	SlotsBackoff 	0
scalar MyScenario.node[132].nic.mac1609_4 	NumInternalContention 	0
scalar MyScenario.node[132].nic.mac1609_4 	totalBusyTime 	0.00116
scalar MyScenario.node[132].veinsmobility 	startTime 	1
scalar MyScenario.node[132].veinsmobility 	totalTime 	166
scalar MyScenario.node[132].veinsmobility 	stopTime 	168
scalar MyScenario.node[132].veinsmobility 	minSpeed 	2.2651643934911e-12
scalar MyScenario.node[132].veinsmobility 	maxSpeed 	13.899929775856
scalar MyScenario.node[132].veinsmobility 	totalDistance 	1258.4468793186
scalar MyScenario.node[132].veinsmobility 	totalCO2Emission 	460.70792225828
scalar MyScenario.node[75].appl 	generatedWSMs 	0
scalar MyScenario.node[75].appl 	receivedWSMs 	0
scalar MyScenario.node[75].appl 	generatedBSMs 	0
scalar MyScenario.node[75].appl 	receivedBSMs 	0
scalar MyScenario.node[75].appl 	generatedWSAs 	0
scalar MyScenario.node[75].appl 	receivedWSAs 	0
scalar MyScenario.node[75].nic.phy80211p 	busyTime 	6.8235294117647e-06
scalar MyScenario.node[75].nic.mac1609_4 	ReceivedUnicastPackets 	0
scalar MyScenario.node[75].nic.mac1609_4 	ReceivedBroadcasts 	0
scalar MyScenario.node[75].nic.mac1609_4 	SentPackets 	0
scalar MyScenario.node[75].nic.mac1609_4 	SNIRLostPackets 	5
scalar MyScenario.node[75].nic.mac1609_4 	RXTXLostPackets 	0
scalar MyScenario.node[75].nic.mac1609_4 	TotalLostPackets 	5
scalar MyScenario.node[75].nic.mac1609_4 	DroppedPacketsInMac 	0
scalar MyScenario.node[75].nic.mac1609_4 	TooLittleTime 	0
scalar MyScenario.node[75].nic.mac1609_4 	TimesIntoBackoff 	0
scalar MyScenario.node[75].nic.mac1609_4 	SlotsBackoff 	0
scalar MyScenario.node[75].nic.mac1609_4 	NumInternalContention 	0
scalar MyScenario.node[75].nic.mac1609_4 	totalBusyTime 	0.000696
scalar MyScenario.node[75].veinsmobility 	startTime 	1
scalar MyScenario.node[75].veinsmobility 	totalTime 	169
scalar MyScenario.node[75].veinsmobility 	stopTime 	171
scalar MyScenario.node[75].veinsmobility 	minSpeed 	4.1770525376167e-15
scalar MyScenario.node[75].veinsmobility 	maxSpeed 	13.888542672247
scalar MyScenario.node[75].veinsmobility 	totalDistance 	1174.9649282983
scalar MyScenario.node[75].veinsmobility 	totalCO2Emission 	427.97501177654
scalar MyScenario.node[254].appl 	generatedWSMs 	0
scalar MyScenario.node[254].appl 	receivedWSMs 	0
scalar MyScenario.node[254].appl 	generatedBSMs 	0
scalar MyScenario.node[254].appl 	receivedBSMs 	0
scalar MyScenario.node[254].appl 	generatedWSAs 	0
scalar MyScenario.node[254].appl 	receivedWSAs 	0
scalar MyScenario.node[254].nic.phy80211p 	busyTime 	1.7952380952381e-05
scalar MyScenario.node[254].nic.mac1609_4 	ReceivedUnicastPackets 	0
scalar MyScenario.node[254].nic.mac1609_4 	ReceivedBroadcasts 	0
scalar MyScenario.node[254].nic.mac1609_4 	SentPackets 	0
scalar MyScenario.node[254].nic.mac1609_4 	SNIRLostPackets 	13
scalar MyScenario.node[254].nic.mac1609_4 	RXTXLostPackets 	0
scalar MyScenario.node[254].nic.mac1609_4 	TotalLostPackets 	13
scalar MyScenario.node[254].nic.mac1609_4 	DroppedPacketsInMac 	0
scalar MyScenario.node[254].nic.mac1609_4 	TooLittleTime 	0
scalar MyScenario.node[254].nic.mac1609_4 	TimesIntoBackoff 	0
scalar MyScenario.node[254].nic.mac1609_4 	SlotsBackoff 	0
scalar MyScenario.node[254].nic.mac1609_4 	NumInternalContention 	0
scalar MyScenario.node[254].nic.mac1609_4 	totalBusyTime 	0.001392
scalar MyScenario.node[254].veinsmobility 	startTime 	4
scalar MyScenario.node[254].veinsmobility 	totalTime 	167
scalar MyScenario.node[254].veinsmobility 	stopTime 	172
scalar MyScenario.node[254].veinsmobility 	minSpeed 	4.8671518575944e-12
scalar MyScenario.node[254].veinsmobility 	maxSpeed 	13.876946220733
scalar MyScenario.node[254].veinsmobility 	totalDistance 	1169.5598308596
scalar MyScenario.node[254].veinsmobility 	totalCO2Emission 	435.01049570328
scalar MyScenario.node[238].appl 	generatedWSMs 	0
scalar MyScenario.node[238].appl 	receivedWSMs 	0
scalar MyScenario.node[238].appl 	generatedBSMs 	0
scalar MyScenario.node[238].appl 	receivedBSMs 	0
scalar MyScenario.node[238].appl 	generatedWSAs 	0
scalar MyScenario.node[238].appl 	receivedWSAs 	0
scalar MyScenario.node[238].nic.phy80211p 	busyTime 	9.3872832369942e-06
scalar MyScenario.node[238].nic.mac1609_4 	ReceivedUnicastPackets 	0
scalar MyScenario.node[238].nic.mac1609_4 	ReceivedBroadcasts 	0
scalar MyScenario.node[238].nic.mac1609_4 	SentPackets 	0
scalar MyScenario.node[238].nic.mac1609_4 	SNIRLostPackets 	7
scalar MyScenario.node[238].nic.mac1609_4 	RXTXLostPackets 	0
scalar MyScenario.node[238].nic.mac1609_4 	TotalLostPackets 	7
scalar MyScenario.node[238].nic.mac1609_4 	DroppedPacketsInMac 	0
scalar MyScenario.node[238].nic.mac1609_4 	TooLittleTime 	0
scalar MyScenario.node[238].nic.mac1609_4 	TimesIntoBackoff 	0
scalar MyScenario.node[238].nic.mac1609_4 	SlotsBackoff 	0
scalar MyScenario.node[238].nic.mac1609_4 	NumInternalContention 	0
scalar MyScenario.node[238].nic.mac1609_4 	totalBusyTime 	0.000696
scalar MyScenario.node[238].veinsmobility 	startTime 	4
scalar MyScenario.node[238].veinsmobility 	totalTime 	172
scalar MyScenario.node[238].veinsmobility 	stopTime 	177
scalar MyScenario.node[238].veinsmobility 	minSpeed 	2.3953273425721e-15
scalar MyScenario.node[238].veinsmobility 	maxSpeed 	13.849612297351
scalar MyScenario.node[238].veinsmobility 	totalDistance 	1372.3592628541
scalar MyScenario.node[238].veinsmobility 	totalCO2Emission 	486.07793746305
scalar MyScenario.node[65].appl 	generatedWSMs 	0
scalar MyScenario.node[65].appl 	receivedWSMs 	0
scalar MyScenario.node[65].appl 	generatedBSMs 	0
scalar MyScenario.node[65].appl 	receivedBSMs 	0
scalar MyScenario.node[65].appl 	generatedWSAs 	0
scalar MyScenario.node[65].appl 	receivedWSAs 	0
scalar MyScenario.node[65].nic.phy80211p 	busyTime 	7.9090909090909e-06
scalar MyScenario.node[65].nic.mac1609_4 	ReceivedUnicastPackets 	0
scalar MyScenario.node[65].nic.mac1609_4 	ReceivedBroadcasts 	0
scalar MyScenario.node[65].nic.mac1609_4 	SentPackets 	0
scalar MyScenario.node[65].nic.mac1609_4 	SNIRLostPackets 	6
scalar MyScenario.node[65].nic.mac1609_4 	RXTXLostPackets 	0
scalar MyScenario.node[65].nic.mac1609_4 	TotalLostPackets 	6
scalar MyScenario.node[65].nic.mac1609_4 	DroppedPacketsInMac 	0
scalar MyScenario.node[65].nic.mac1609_4 	TooLittleTime 	0
scalar MyScenario.node[65].nic.mac1609_4 	TimesIntoBackoff 	0
scalar MyScenario.node[65].nic.mac1609_4 	SlotsBackoff 	0
scalar MyScenario.node[65].nic.mac1609_4 	NumInternalContention 	0
scalar MyScenario.node[65].nic.mac1609_4 	totalBusyTime 	0.000696
scalar MyScenario.node[65].veinsmobility 	startTime 	1
scalar MyScenario.node[65].veinsmobility 	totalTime 	175
scalar MyScenario.node[65].veinsmobility 	stopTime 	177
scalar MyScenario.node[65].veinsmobility 	minSpeed 	2.4209484494e-15
scalar MyScenario.node[65].veinsmobility 	maxSpeed 	13.886732352315
scalar MyScenario.node[65].veinsmobility 	totalDistance 	1257.042704433
scalar MyScenario.node[65].veinsmobility 	totalCO2Emission 	461.46438162032
scalar MyScenario.node[59].appl 	generatedWSMs 	0
scalar MyScenario.node[59].appl 	receivedWSMs 	0
scalar MyScenario.node[59].appl 	generatedBSMs 	0
scalar MyScenario.node[59].appl 	receivedBSMs 	0
scalar MyScenario.node[59].appl 	generatedWSAs 	0
scalar MyScenario.node[59].appl 	receivedWSAs 	0
scalar MyScenario.node[59].nic.phy80211p 	busyTime 	2.6067415730337e-06
scalar MyScenario.node[59].nic.mac1609_4 	ReceivedUnicastPackets 	0
scalar MyScenario.node[59].nic.mac1609_4 	ReceivedBroadcasts 	0
scalar MyScenario.node[59].nic.mac1609_4 	SentPackets 	0
scalar MyScenario.node[59].nic.mac1609_4 	SNIRLostPackets 	2
scalar MyScenario.node[59].nic.mac1609_4 	RXTXLostPackets 	0
scalar MyScenario.node[59].nic.mac1609_4 	TotalLostPackets 	2
scalar MyScenario.node[59].nic.mac1609_4 	DroppedPacketsInMac 	0
scalar MyScenario.node[59].nic.mac1609_4 	TooLittleTime 	0
scalar MyScenario.node[59].nic.mac1609_4 	TimesIntoBackoff 	0
scalar MyScenario.node[59].nic.mac1609_4 	SlotsBackoff 	0
scalar MyScenario.node[59].nic.mac1609_4 	NumInternalContention 	0
scalar MyScenario.node[59].nic.mac1609_4 	totalBusyTime 	0.000232
scalar MyScenario.node[59].veinsmobility 	startTime 	1
scalar MyScenario.node[59].veinsmobility 	totalTime 	177
scalar MyScenario.node[59].veinsmobility 	stopTime 	179
scalar MyScenario.node[59].veinsmobility 	minSpeed 	5.0989853939247e-09
scalar MyScenario.node[59].veinsmobility 	maxSpeed 	13.885453770636
scalar MyScenario.node[59].veinsmobility 	totalDistance 	1352.1187583995
scalar MyScenario.node[59].veinsmobility 	totalCO2Emission 	517.42482684862
scalar MyScenario.node[243].appl 	generatedWSMs 	0
scalar MyScenario.node[243].appl 	receivedWSMs 	0
scalar MyScenario.node[243].appl 	generatedBSMs 	0
scalar MyScenario.node[243].appl 	receivedBSMs 	0
scalar MyScenario.node[243].appl 	generatedWSAs 	0
scalar MyScenario.node[243].appl 	receivedWSAs 	0
scalar MyScenario.node[243].nic.phy80211p 	busyTime 	4.989247311828e-06
scalar MyScenario.node[243].nic.mac1609_4 	ReceivedUnicastPackets 	0
scalar MyScenario.node[243].nic.mac1609_4 	ReceivedBroadcasts 	0
scalar MyScenario.node[243].nic.mac1609_4 	SentPackets 	0
scalar MyScenario.node[243].nic.mac1609_4 	SNIRLostPackets 	4
scalar MyScenario.node[243].nic.mac1609_4 	RXTXLostPackets 	0
scalar MyScenario.node[243].nic.mac1609_4 	TotalLostPackets 	4
scalar MyScenario.node[243].nic.mac1609_4 	DroppedPacketsInMac 	0
scalar MyScenario.node[243].nic.mac1609_4 	TooLittleTime 	0
scalar MyScenario.node[243].nic.mac1609_4 	TimesIntoBackoff 	0
scalar MyScenario.node[243].nic.mac1609_4 	SlotsBackoff 	0
scalar MyScenario.node[243].nic.mac1609_4 	NumInternalContention 	0
scalar MyScenario.node[243].nic.mac1609_4 	totalBusyTime 	0.000696
scalar MyScenario.node[243].veinsmobility 	startTime 	4
scalar MyScenario.node[243].veinsmobility 	totalTime 	185
scalar MyScenario.node[243].veinsmobility 	stopTime 	190
scalar MyScenario.node[243].veinsmobility 	minSpeed 	3.0438612633018e-11
scalar MyScenario.node[243].veinsmobility 	maxSpeed 	13.869344316446
scalar MyScenario.node[243].veinsmobility 	totalDistance 	1356.7664387422
scalar MyScenario.node[243].veinsmobility 	totalCO2Emission 	497.75511763807
