version 2
run General-33-20170829-17:47:54-8100
attr configname General
attr datetime 20170829-17:47:54
attr density 400
attr experiment General
attr inifile omnetpp.ini
attr iterationvars $density=400
attr iterationvars2 "$density=400, $repetition=3"
attr measurement $density=400
attr network com.liborio.pi.MyScenario
attr processid 8100
attr repetition 3
attr replication #3
attr resultdir results
attr runnumber 33
attr seedset 3
param **.coreDebug false
param **.debug false
param *.**.nic.mac1609_4.bitrate 6Mbps
param *.**.nic.mac1609_4.txPower 20mW
param *.**.nic.mac1609_4.useServiceChannel true
param *.**.nic.phy80211p.analogueModels "xmldoc(\"config.xml\")"
param *.**.nic.phy80211p.antenna "xmldoc(\"antenna.xml\", \"/root/Antenna[@id='monopole']\")"
param *.**.nic.phy80211p.decider "xmldoc(\"config.xml\")"
param *.**.nic.phy80211p.sensitivity -84.39dBm
param *.**.nic.phy80211p.thermalNoise -110dBm
param *.**.nic.phy80211p.usePropagationDelay true
param *.**.nic.phy80211p.useThermalNoise true
param *.annotations.draw true
param *.connectionManager.drawMaxIntfDist false
param *.connectionManager.maxInterfDist 2600m
param *.connectionManager.sendDirect true
param *.manager.autoShutdown true
param *.manager.host "\"localhost\""
param *.manager.launchConfig "xmldoc(string(${density = 100, 200, 300, 400})+\"_\"+ string(${repetition})+\".launchd.xml\")"
param *.manager.port 9999
param *.manager.updateInterval 1s
param *.node[*].appl.beaconInterval 1s
param *.node[*].appl.dataOnSch true
param *.node[*].appl.headerLength "80 bit"
param *.node[*].appl.isSource false
param *.node[*].appl.numMsgs 100
param *.node[*].appl.sendBeacons false
param *.node[*].appl.stopTrafficTime 130s
param *.node[*].appl.wsmInterval 3s
param *.node[*].applType "\"Flooding\""
param *.node[*].veinsmobility.x 0
param *.node[*].veinsmobility.y 0
param *.node[*].veinsmobility.z 1.895
param *.node[*].veinsmobilityType.debug true
param *.node[0].appl.isSource true
param *.playgroundSizeX 2500m
param *.playgroundSizeY 2500m
param *.playgroundSizeZ 50m

scalar . 	density 	400
scalar MyScenario.node[23].appl 	generatedWSMs 	0
scalar MyScenario.node[23].appl 	receivedWSMs 	0
scalar MyScenario.node[23].appl 	generatedBSMs 	0
scalar MyScenario.node[23].appl 	receivedBSMs 	0
scalar MyScenario.node[23].appl 	generatedWSAs 	0
scalar MyScenario.node[23].appl 	receivedWSAs 	0
scalar MyScenario.node[23].nic.phy80211p 	busyTime 	0.0003248
scalar MyScenario.node[23].nic.mac1609_4 	ReceivedUnicastPackets 	0
scalar MyScenario.node[23].nic.mac1609_4 	ReceivedBroadcasts 	0
scalar MyScenario.node[23].nic.mac1609_4 	SentPackets 	0
scalar MyScenario.node[23].nic.mac1609_4 	SNIRLostPackets 	14
scalar MyScenario.node[23].nic.mac1609_4 	RXTXLostPackets 	0
scalar MyScenario.node[23].nic.mac1609_4 	TotalLostPackets 	14
scalar MyScenario.node[23].nic.mac1609_4 	DroppedPacketsInMac 	0
scalar MyScenario.node[23].nic.mac1609_4 	TooLittleTime 	0
scalar MyScenario.node[23].nic.mac1609_4 	TimesIntoBackoff 	0
scalar MyScenario.node[23].nic.mac1609_4 	SlotsBackoff 	0
scalar MyScenario.node[23].nic.mac1609_4 	NumInternalContention 	0
scalar MyScenario.node[23].nic.mac1609_4 	totalBusyTime 	0.000928
scalar MyScenario.node[23].veinsmobility 	startTime 	1
scalar MyScenario.node[23].veinsmobility 	totalTime 	9
scalar MyScenario.node[23].veinsmobility 	stopTime 	11
scalar MyScenario.node[23].veinsmobility 	minSpeed 	1.4274568145163
scalar MyScenario.node[23].veinsmobility 	maxSpeed 	13.615468391939
scalar MyScenario.node[23].veinsmobility 	totalDistance 	75.778219858347
scalar MyScenario.node[23].veinsmobility 	totalCO2Emission 	37.46805285417
scalar MyScenario.node[28].appl 	generatedWSMs 	0
scalar MyScenario.node[28].appl 	receivedWSMs 	0
scalar MyScenario.node[28].appl 	generatedBSMs 	0
scalar MyScenario.node[28].appl 	receivedBSMs 	0
scalar MyScenario.node[28].appl 	generatedWSAs 	0
scalar MyScenario.node[28].appl 	receivedWSAs 	0
scalar MyScenario.node[28].nic.phy80211p 	busyTime 	0
scalar MyScenario.node[28].nic.mac1609_4 	ReceivedUnicastPackets 	0
scalar MyScenario.node[28].nic.mac1609_4 	ReceivedBroadcasts 	0
scalar MyScenario.node[28].nic.mac1609_4 	SentPackets 	0
scalar MyScenario.node[28].nic.mac1609_4 	SNIRLostPackets 	0
scalar MyScenario.node[28].nic.mac1609_4 	RXTXLostPackets 	0
scalar MyScenario.node[28].nic.mac1609_4 	TotalLostPackets 	0
scalar MyScenario.node[28].nic.mac1609_4 	DroppedPacketsInMac 	0
scalar MyScenario.node[28].nic.mac1609_4 	TooLittleTime 	0
scalar MyScenario.node[28].nic.mac1609_4 	TimesIntoBackoff 	0
scalar MyScenario.node[28].nic.mac1609_4 	SlotsBackoff 	0
scalar MyScenario.node[28].nic.mac1609_4 	NumInternalContention 	0
scalar MyScenario.node[28].nic.mac1609_4 	totalBusyTime 	0
scalar MyScenario.node[28].veinsmobility 	startTime 	1
scalar MyScenario.node[28].veinsmobility 	totalTime 	9
scalar MyScenario.node[28].veinsmobility 	stopTime 	11
scalar MyScenario.node[28].veinsmobility 	minSpeed 	2.3777120647021
scalar MyScenario.node[28].veinsmobility 	maxSpeed 	13.670323376567
scalar MyScenario.node[28].veinsmobility 	totalDistance 	83.673597846297
scalar MyScenario.node[28].veinsmobility 	totalCO2Emission 	40.219539626642
scalar MyScenario.node[30].appl 	generatedWSMs 	0
scalar MyScenario.node[30].appl 	receivedWSMs 	0
scalar MyScenario.node[30].appl 	generatedBSMs 	0
scalar MyScenario.node[30].appl 	receivedBSMs 	0
scalar MyScenario.node[30].appl 	generatedWSAs 	0
scalar MyScenario.node[30].appl 	receivedWSAs 	0
scalar MyScenario.node[30].nic.phy80211p 	busyTime 	0
scalar MyScenario.node[30].nic.mac1609_4 	ReceivedUnicastPackets 	0
scalar MyScenario.node[30].nic.mac1609_4 	ReceivedBroadcasts 	0
scalar MyScenario.node[30].nic.mac1609_4 	SentPackets 	0
scalar MyScenario.node[30].nic.mac1609_4 	SNIRLostPackets 	0
scalar MyScenario.node[30].nic.mac1609_4 	RXTXLostPackets 	0
scalar MyScenario.node[30].nic.mac1609_4 	TotalLostPackets 	0
scalar MyScenario.node[30].nic.mac1609_4 	DroppedPacketsInMac 	0
scalar MyScenario.node[30].nic.mac1609_4 	TooLittleTime 	0
scalar MyScenario.node[30].nic.mac1609_4 	TimesIntoBackoff 	0
scalar MyScenario.node[30].nic.mac1609_4 	SlotsBackoff 	0
scalar MyScenario.node[30].nic.mac1609_4 	NumInternalContention 	0
scalar MyScenario.node[30].nic.mac1609_4 	totalBusyTime 	0
scalar MyScenario.node[30].veinsmobility 	startTime 	1
scalar MyScenario.node[30].veinsmobility 	totalTime 	9
scalar MyScenario.node[30].veinsmobility 	stopTime 	11
scalar MyScenario.node[30].veinsmobility 	minSpeed 	2.3553506065393
scalar MyScenario.node[30].veinsmobility 	maxSpeed 	13.585384174273
scalar MyScenario.node[30].veinsmobility 	totalDistance 	85.37248081218
scalar MyScenario.node[30].veinsmobility 	totalCO2Emission 	37.639986388444
scalar MyScenario.node[225].appl 	generatedWSMs 	0
scalar MyScenario.node[225].appl 	receivedWSMs 	0
scalar MyScenario.node[225].appl 	generatedBSMs 	0
scalar MyScenario.node[225].appl 	receivedBSMs 	0
scalar MyScenario.node[225].appl 	generatedWSAs 	0
scalar MyScenario.node[225].appl 	receivedWSAs 	0
scalar MyScenario.node[225].nic.phy80211p 	busyTime 	0
scalar MyScenario.node[225].nic.mac1609_4 	ReceivedUnicastPackets 	0
scalar MyScenario.node[225].nic.mac1609_4 	ReceivedBroadcasts 	0
scalar MyScenario.node[225].nic.mac1609_4 	SentPackets 	0
scalar MyScenario.node[225].nic.mac1609_4 	SNIRLostPackets 	0
scalar MyScenario.node[225].nic.mac1609_4 	RXTXLostPackets 	0
scalar MyScenario.node[225].nic.mac1609_4 	TotalLostPackets 	0
scalar MyScenario.node[225].nic.mac1609_4 	DroppedPacketsInMac 	0
scalar MyScenario.node[225].nic.mac1609_4 	TooLittleTime 	0
scalar MyScenario.node[225].nic.mac1609_4 	TimesIntoBackoff 	0
scalar MyScenario.node[225].nic.mac1609_4 	SlotsBackoff 	0
scalar MyScenario.node[225].nic.mac1609_4 	NumInternalContention 	0
scalar MyScenario.node[225].nic.mac1609_4 	totalBusyTime 	0
scalar MyScenario.node[225].veinsmobility 	startTime 	1
scalar MyScenario.node[225].veinsmobility 	totalTime 	10
scalar MyScenario.node[225].veinsmobility 	stopTime 	12
scalar MyScenario.node[225].veinsmobility 	minSpeed 	1.7034126528772
scalar MyScenario.node[225].veinsmobility 	maxSpeed 	13.841920995363
scalar MyScenario.node[225].veinsmobility 	totalDistance 	90.523135622948
scalar MyScenario.node[225].veinsmobility 	totalCO2Emission 	43.851226924793
scalar MyScenario.node[187].appl 	generatedWSMs 	0
scalar MyScenario.node[187].appl 	receivedWSMs 	0
scalar MyScenario.node[187].appl 	generatedBSMs 	0
scalar MyScenario.node[187].appl 	receivedBSMs 	0
scalar MyScenario.node[187].appl 	generatedWSAs 	0
scalar MyScenario.node[187].appl 	receivedWSAs 	0
scalar MyScenario.node[187].nic.phy80211p 	busyTime 	0
scalar MyScenario.node[187].nic.mac1609_4 	ReceivedUnicastPackets 	0
scalar MyScenario.node[187].nic.mac1609_4 	ReceivedBroadcasts 	0
scalar MyScenario.node[187].nic.mac1609_4 	SentPackets 	0
scalar MyScenario.node[187].nic.mac1609_4 	SNIRLostPackets 	0
scalar MyScenario.node[187].nic.mac1609_4 	RXTXLostPackets 	0
scalar MyScenario.node[187].nic.mac1609_4 	TotalLostPackets 	0
scalar MyScenario.node[187].nic.mac1609_4 	DroppedPacketsInMac 	0
scalar MyScenario.node[187].nic.mac1609_4 	TooLittleTime 	0
scalar MyScenario.node[187].nic.mac1609_4 	TimesIntoBackoff 	0
scalar MyScenario.node[187].nic.mac1609_4 	SlotsBackoff 	0
scalar MyScenario.node[187].nic.mac1609_4 	NumInternalContention 	0
scalar MyScenario.node[187].nic.mac1609_4 	totalBusyTime 	0
scalar MyScenario.node[187].veinsmobility 	startTime 	1
scalar MyScenario.node[187].veinsmobility 	totalTime 	10
scalar MyScenario.node[187].veinsmobility 	stopTime 	12
scalar MyScenario.node[187].veinsmobility 	minSpeed 	1.6159172458109
scalar MyScenario.node[187].veinsmobility 	maxSpeed 	13.511555935326
scalar MyScenario.node[187].veinsmobility 	totalDistance 	92.777075507293
scalar MyScenario.node[187].veinsmobility 	totalCO2Emission 	39.265045839072
scalar MyScenario.node[25].appl 	generatedWSMs 	0
scalar MyScenario.node[25].appl 	receivedWSMs 	0
scalar MyScenario.node[25].appl 	generatedBSMs 	0
scalar MyScenario.node[25].appl 	receivedBSMs 	0
scalar MyScenario.node[25].appl 	generatedWSAs 	0
scalar MyScenario.node[25].appl 	receivedWSAs 	0
scalar MyScenario.node[25].nic.phy80211p 	busyTime 	0
scalar MyScenario.node[25].nic.mac1609_4 	ReceivedUnicastPackets 	0
scalar MyScenario.node[25].nic.mac1609_4 	ReceivedBroadcasts 	0
scalar MyScenario.node[25].nic.mac1609_4 	SentPackets 	0
scalar MyScenario.node[25].nic.mac1609_4 	SNIRLostPackets 	0
scalar MyScenario.node[25].nic.mac1609_4 	RXTXLostPackets 	0
scalar MyScenario.node[25].nic.mac1609_4 	TotalLostPackets 	0
scalar MyScenario.node[25].nic.mac1609_4 	DroppedPacketsInMac 	0
scalar MyScenario.node[25].nic.mac1609_4 	TooLittleTime 	0
scalar MyScenario.node[25].nic.mac1609_4 	TimesIntoBackoff 	0
scalar MyScenario.node[25].nic.mac1609_4 	SlotsBackoff 	0
scalar MyScenario.node[25].nic.mac1609_4 	NumInternalContention 	0
scalar MyScenario.node[25].nic.mac1609_4 	totalBusyTime 	0
scalar MyScenario.node[25].veinsmobility 	startTime 	1
scalar MyScenario.node[25].veinsmobility 	totalTime 	10
scalar MyScenario.node[25].veinsmobility 	stopTime 	12
scalar MyScenario.node[25].veinsmobility 	minSpeed 	1.6531062203692
scalar MyScenario.node[25].veinsmobility 	maxSpeed 	13.760424441448
scalar MyScenario.node[25].veinsmobility 	totalDistance 	93.59200113431
scalar MyScenario.node[25].veinsmobility 	totalCO2Emission 	39.323654911375
scalar MyScenario.node[248].appl 	generatedWSMs 	0
scalar MyScenario.node[248].appl 	receivedWSMs 	0
scalar MyScenario.node[248].appl 	generatedBSMs 	0
scalar MyScenario.node[248].appl 	receivedBSMs 	0
scalar MyScenario.node[248].appl 	generatedWSAs 	0
scalar MyScenario.node[248].appl 	receivedWSAs 	0
scalar MyScenario.node[248].nic.phy80211p 	busyTime 	0
scalar MyScenario.node[248].nic.mac1609_4 	ReceivedUnicastPackets 	0
scalar MyScenario.node[248].nic.mac1609_4 	ReceivedBroadcasts 	0
scalar MyScenario.node[248].nic.mac1609_4 	SentPackets 	0
scalar MyScenario.node[248].nic.mac1609_4 	SNIRLostPackets 	0
scalar MyScenario.node[248].nic.mac1609_4 	RXTXLostPackets 	0
scalar MyScenario.node[248].nic.mac1609_4 	TotalLostPackets 	0
scalar MyScenario.node[248].nic.mac1609_4 	DroppedPacketsInMac 	0
scalar MyScenario.node[248].nic.mac1609_4 	TooLittleTime 	0
scalar MyScenario.node[248].nic.mac1609_4 	TimesIntoBackoff 	0
scalar MyScenario.node[248].nic.mac1609_4 	SlotsBackoff 	0
scalar MyScenario.node[248].nic.mac1609_4 	NumInternalContention 	0
scalar MyScenario.node[248].nic.mac1609_4 	totalBusyTime 	0
scalar MyScenario.node[248].veinsmobility 	startTime 	4
scalar MyScenario.node[248].veinsmobility 	totalTime 	10
scalar MyScenario.node[248].veinsmobility 	stopTime 	15
scalar MyScenario.node[248].veinsmobility 	minSpeed 	2.4400010141311
scalar MyScenario.node[248].veinsmobility 	maxSpeed 	13.880019303993
scalar MyScenario.node[248].veinsmobility 	totalDistance 	95.033435950764
scalar MyScenario.node[248].veinsmobility 	totalCO2Emission 	40.989563714339
scalar MyScenario.node[339].appl 	generatedWSMs 	0
scalar MyScenario.node[339].appl 	receivedWSMs 	0
scalar MyScenario.node[339].appl 	generatedBSMs 	0
scalar MyScenario.node[339].appl 	receivedBSMs 	0
scalar MyScenario.node[339].appl 	generatedWSAs 	0
scalar MyScenario.node[339].appl 	receivedWSAs 	0
scalar MyScenario.node[339].nic.phy80211p 	busyTime 	2.1090909090909e-05
scalar MyScenario.node[339].nic.mac1609_4 	ReceivedUnicastPackets 	0
scalar MyScenario.node[339].nic.mac1609_4 	ReceivedBroadcasts 	0
scalar MyScenario.node[339].nic.mac1609_4 	SentPackets 	0
scalar MyScenario.node[339].nic.mac1609_4 	SNIRLostPackets 	1
scalar MyScenario.node[339].nic.mac1609_4 	RXTXLostPackets 	0
scalar MyScenario.node[339].nic.mac1609_4 	TotalLostPackets 	1
scalar MyScenario.node[339].nic.mac1609_4 	DroppedPacketsInMac 	0
scalar MyScenario.node[339].nic.mac1609_4 	TooLittleTime 	0
scalar MyScenario.node[339].nic.mac1609_4 	TimesIntoBackoff 	0
scalar MyScenario.node[339].nic.mac1609_4 	SlotsBackoff 	0
scalar MyScenario.node[339].nic.mac1609_4 	NumInternalContention 	0
scalar MyScenario.node[339].nic.mac1609_4 	totalBusyTime 	0.000232
scalar MyScenario.node[339].veinsmobility 	startTime 	4
scalar MyScenario.node[339].veinsmobility 	totalTime 	10
scalar MyScenario.node[339].veinsmobility 	stopTime 	15
scalar MyScenario.node[339].veinsmobility 	minSpeed 	1.8178889009403
scalar MyScenario.node[339].veinsmobility 	maxSpeed 	13.771669422043
scalar MyScenario.node[339].veinsmobility 	totalDistance 	93.144931481115
scalar MyScenario.node[339].veinsmobility 	totalCO2Emission 	39.080343237199
scalar MyScenario.node[295].appl 	generatedWSMs 	0
scalar MyScenario.node[295].appl 	receivedWSMs 	0
scalar MyScenario.node[295].appl 	generatedBSMs 	0
scalar MyScenario.node[295].appl 	receivedBSMs 	0
scalar MyScenario.node[295].appl 	generatedWSAs 	0
scalar MyScenario.node[295].appl 	receivedWSAs 	0
scalar MyScenario.node[295].nic.phy80211p 	busyTime 	0
scalar MyScenario.node[295].nic.mac1609_4 	ReceivedUnicastPackets 	0
scalar MyScenario.node[295].nic.mac1609_4 	ReceivedBroadcasts 	0
scalar MyScenario.node[295].nic.mac1609_4 	SentPackets 	0
scalar MyScenario.node[295].nic.mac1609_4 	SNIRLostPackets 	0
scalar MyScenario.node[295].nic.mac1609_4 	RXTXLostPackets 	0
scalar MyScenario.node[295].nic.mac1609_4 	TotalLostPackets 	0
scalar MyScenario.node[295].nic.mac1609_4 	DroppedPacketsInMac 	0
scalar MyScenario.node[295].nic.mac1609_4 	TooLittleTime 	0
scalar MyScenario.node[295].nic.mac1609_4 	TimesIntoBackoff 	0
scalar MyScenario.node[295].nic.mac1609_4 	SlotsBackoff 	0
scalar MyScenario.node[295].nic.mac1609_4 	NumInternalContention 	0
scalar MyScenario.node[295].nic.mac1609_4 	totalBusyTime 	0
scalar MyScenario.node[295].veinsmobility 	startTime 	4
scalar MyScenario.node[295].veinsmobility 	totalTime 	10
scalar MyScenario.node[295].veinsmobility 	stopTime 	15
scalar MyScenario.node[295].veinsmobility 	minSpeed 	1.6030366386163
scalar MyScenario.node[295].veinsmobility 	maxSpeed 	13.249712344282
scalar MyScenario.node[295].veinsmobility 	totalDistance 	93.809183221745
scalar MyScenario.node[295].veinsmobility 	totalCO2Emission 	37.537610358212
scalar MyScenario.node[281].appl 	generatedWSMs 	0
scalar MyScenario.node[281].appl 	receivedWSMs 	0
scalar MyScenario.node[281].appl 	generatedBSMs 	0
scalar MyScenario.node[281].appl 	receivedBSMs 	0
scalar MyScenario.node[281].appl 	generatedWSAs 	0
scalar MyScenario.node[281].appl 	receivedWSAs 	0
scalar MyScenario.node[281].nic.phy80211p 	busyTime 	0
scalar MyScenario.node[281].nic.mac1609_4 	ReceivedUnicastPackets 	0
scalar MyScenario.node[281].nic.mac1609_4 	ReceivedBroadcasts 	0
scalar MyScenario.node[281].nic.mac1609_4 	SentPackets 	0
scalar MyScenario.node[281].nic.mac1609_4 	SNIRLostPackets 	0
scalar MyScenario.node[281].nic.mac1609_4 	RXTXLostPackets 	0
scalar MyScenario.node[281].nic.mac1609_4 	TotalLostPackets 	0
scalar MyScenario.node[281].nic.mac1609_4 	DroppedPacketsInMac 	0
scalar MyScenario.node[281].nic.mac1609_4 	TooLittleTime 	0
scalar MyScenario.node[281].nic.mac1609_4 	TimesIntoBackoff 	0
scalar MyScenario.node[281].nic.mac1609_4 	SlotsBackoff 	0
scalar MyScenario.node[281].nic.mac1609_4 	NumInternalContention 	0
scalar MyScenario.node[281].nic.mac1609_4 	totalBusyTime 	0
scalar MyScenario.node[281].veinsmobility 	startTime 	4
scalar MyScenario.node[281].veinsmobility 	totalTime 	10
scalar MyScenario.node[281].veinsmobility 	stopTime 	15
scalar MyScenario.node[281].veinsmobility 	minSpeed 	1.4111107582226
scalar MyScenario.node[281].veinsmobility 	maxSpeed 	13.582858729945
scalar MyScenario.node[281].veinsmobility 	totalDistance 	92.356300513238
scalar MyScenario.node[281].veinsmobility 	totalCO2Emission 	40.595014989982
scalar MyScenario.node[347].appl 	generatedWSMs 	0
scalar MyScenario.node[347].appl 	receivedWSMs 	0
scalar MyScenario.node[347].appl 	generatedBSMs 	0
scalar MyScenario.node[347].appl 	receivedBSMs 	0
scalar MyScenario.node[347].appl 	generatedWSAs 	0
scalar MyScenario.node[347].appl 	receivedWSAs 	0
scalar MyScenario.node[347].nic.phy80211p 	busyTime 	0
scalar MyScenario.node[347].nic.mac1609_4 	ReceivedUnicastPackets 	0
scalar MyScenario.node[347].nic.mac1609_4 	ReceivedBroadcasts 	0
scalar MyScenario.node[347].nic.mac1609_4 	SentPackets 	0
scalar MyScenario.node[347].nic.mac1609_4 	SNIRLostPackets 	0
scalar MyScenario.node[347].nic.mac1609_4 	RXTXLostPackets 	0
scalar MyScenario.node[347].nic.mac1609_4 	TotalLostPackets 	0
scalar MyScenario.node[347].nic.mac1609_4 	DroppedPacketsInMac 	0
scalar MyScenario.node[347].nic.mac1609_4 	TooLittleTime 	0
scalar MyScenario.node[347].nic.mac1609_4 	TimesIntoBackoff 	0
scalar MyScenario.node[347].nic.mac1609_4 	SlotsBackoff 	0
scalar MyScenario.node[347].nic.mac1609_4 	NumInternalContention 	0
scalar MyScenario.node[347].nic.mac1609_4 	totalBusyTime 	0
scalar MyScenario.node[347].veinsmobility 	startTime 	7
scalar MyScenario.node[347].veinsmobility 	totalTime 	9
scalar MyScenario.node[347].veinsmobility 	stopTime 	17
scalar MyScenario.node[347].veinsmobility 	minSpeed 	2.5493880040245
scalar MyScenario.node[347].veinsmobility 	maxSpeed 	13.729638237506
scalar MyScenario.node[347].veinsmobility 	totalDistance 	86.892917036535
scalar MyScenario.node[347].veinsmobility 	totalCO2Emission 	40.385968193041
scalar MyScenario.node[349].appl 	generatedWSMs 	0
scalar MyScenario.node[349].appl 	receivedWSMs 	0
scalar MyScenario.node[349].appl 	generatedBSMs 	0
scalar MyScenario.node[349].appl 	receivedBSMs 	0
scalar MyScenario.node[349].appl 	generatedWSAs 	0
scalar MyScenario.node[349].appl 	receivedWSAs 	0
scalar MyScenario.node[349].nic.phy80211p 	busyTime 	0
scalar MyScenario.node[349].nic.mac1609_4 	ReceivedUnicastPackets 	0
scalar MyScenario.node[349].nic.mac1609_4 	ReceivedBroadcasts 	0
scalar MyScenario.node[349].nic.mac1609_4 	SentPackets 	0
scalar MyScenario.node[349].nic.mac1609_4 	SNIRLostPackets 	0
scalar MyScenario.node[349].nic.mac1609_4 	RXTXLostPackets 	0
scalar MyScenario.node[349].nic.mac1609_4 	TotalLostPackets 	0
scalar MyScenario.node[349].nic.mac1609_4 	DroppedPacketsInMac 	0
scalar MyScenario.node[349].nic.mac1609_4 	TooLittleTime 	0
scalar MyScenario.node[349].nic.mac1609_4 	TimesIntoBackoff 	0
scalar MyScenario.node[349].nic.mac1609_4 	SlotsBackoff 	0
scalar MyScenario.node[349].nic.mac1609_4 	NumInternalContention 	0
scalar MyScenario.node[349].nic.mac1609_4 	totalBusyTime 	0
scalar MyScenario.node[349].veinsmobility 	startTime 	7
scalar MyScenario.node[349].veinsmobility 	totalTime 	9
scalar MyScenario.node[349].veinsmobility 	stopTime 	17
scalar MyScenario.node[349].veinsmobility 	minSpeed 	2.3250762236072
scalar MyScenario.node[349].veinsmobility 	maxSpeed 	12.956889786432
scalar MyScenario.node[349].veinsmobility 	totalDistance 	82.485946651921
scalar MyScenario.node[349].veinsmobility 	totalCO2Emission 	35.429304368588
scalar MyScenario.node[39].appl 	generatedWSMs 	0
scalar MyScenario.node[39].appl 	receivedWSMs 	0
scalar MyScenario.node[39].appl 	generatedBSMs 	0
scalar MyScenario.node[39].appl 	receivedBSMs 	0
scalar MyScenario.node[39].appl 	generatedWSAs 	0
scalar MyScenario.node[39].appl 	receivedWSAs 	0
scalar MyScenario.node[39].nic.phy80211p 	busyTime 	0.00017741176470588
scalar MyScenario.node[39].nic.mac1609_4 	ReceivedUnicastPackets 	0
scalar MyScenario.node[39].nic.mac1609_4 	ReceivedBroadcasts 	0
scalar MyScenario.node[39].nic.mac1609_4 	SentPackets 	0
scalar MyScenario.node[39].nic.mac1609_4 	SNIRLostPackets 	13
scalar MyScenario.node[39].nic.mac1609_4 	RXTXLostPackets 	0
scalar MyScenario.node[39].nic.mac1609_4 	TotalLostPackets 	13
scalar MyScenario.node[39].nic.mac1609_4 	DroppedPacketsInMac 	0
scalar MyScenario.node[39].nic.mac1609_4 	TooLittleTime 	0
scalar MyScenario.node[39].nic.mac1609_4 	TimesIntoBackoff 	0
scalar MyScenario.node[39].nic.mac1609_4 	SlotsBackoff 	0
scalar MyScenario.node[39].nic.mac1609_4 	NumInternalContention 	0
scalar MyScenario.node[39].nic.mac1609_4 	totalBusyTime 	0.001624
scalar MyScenario.node[39].veinsmobility 	startTime 	1
scalar MyScenario.node[39].veinsmobility 	totalTime 	16
scalar MyScenario.node[39].veinsmobility 	stopTime 	18
scalar MyScenario.node[39].veinsmobility 	minSpeed 	2.0885816448368
scalar MyScenario.node[39].veinsmobility 	maxSpeed 	13.767465925845
scalar MyScenario.node[39].veinsmobility 	totalDistance 	176.01801472505
scalar MyScenario.node[39].veinsmobility 	totalCO2Emission 	56.834933710835
scalar MyScenario.node[150].appl 	generatedWSMs 	1
scalar MyScenario.node[150].appl 	receivedWSMs 	1
scalar MyScenario.node[150].appl 	generatedBSMs 	0
scalar MyScenario.node[150].appl 	receivedBSMs 	0
scalar MyScenario.node[150].appl 	generatedWSAs 	0
scalar MyScenario.node[150].appl 	receivedWSAs 	0
scalar MyScenario.node[150].nic.phy80211p 	busyTime 	0.00012152380952381
scalar MyScenario.node[150].nic.mac1609_4 	ReceivedUnicastPackets 	0
scalar MyScenario.node[150].nic.mac1609_4 	ReceivedBroadcasts 	1
scalar MyScenario.node[150].nic.mac1609_4 	SentPackets 	1
scalar MyScenario.node[150].nic.mac1609_4 	SNIRLostPackets 	10
scalar MyScenario.node[150].nic.mac1609_4 	RXTXLostPackets 	4
scalar MyScenario.node[150].nic.mac1609_4 	TotalLostPackets 	14
scalar MyScenario.node[150].nic.mac1609_4 	DroppedPacketsInMac 	0
scalar MyScenario.node[150].nic.mac1609_4 	TooLittleTime 	0
scalar MyScenario.node[150].nic.mac1609_4 	TimesIntoBackoff 	1
scalar MyScenario.node[150].nic.mac1609_4 	SlotsBackoff 	3
scalar MyScenario.node[150].nic.mac1609_4 	NumInternalContention 	0
scalar MyScenario.node[150].nic.mac1609_4 	totalBusyTime 	0.000929077772
scalar MyScenario.node[150].veinsmobility 	startTime 	1
scalar MyScenario.node[150].veinsmobility 	totalTime 	20
scalar MyScenario.node[150].veinsmobility 	stopTime 	22
scalar MyScenario.node[150].veinsmobility 	minSpeed 	1.172934240117
scalar MyScenario.node[150].veinsmobility 	maxSpeed 	13.79260239657
scalar MyScenario.node[150].veinsmobility 	totalDistance 	171.00888636941
scalar MyScenario.node[150].veinsmobility 	totalCO2Emission 	81.196999381828
scalar MyScenario.node[215].appl 	generatedWSMs 	1
scalar MyScenario.node[215].appl 	receivedWSMs 	9
scalar MyScenario.node[215].appl 	generatedBSMs 	0
scalar MyScenario.node[215].appl 	receivedBSMs 	0
scalar MyScenario.node[215].appl 	generatedWSAs 	0
scalar MyScenario.node[215].appl 	receivedWSAs 	0
scalar MyScenario.node[215].nic.phy80211p 	busyTime 	0.00043236363636364
scalar MyScenario.node[215].nic.mac1609_4 	ReceivedUnicastPackets 	0
scalar MyScenario.node[215].nic.mac1609_4 	ReceivedBroadcasts 	9
scalar MyScenario.node[215].nic.mac1609_4 	SentPackets 	1
scalar MyScenario.node[215].nic.mac1609_4 	SNIRLostPackets 	32
scalar MyScenario.node[215].nic.mac1609_4 	RXTXLostPackets 	20
scalar MyScenario.node[215].nic.mac1609_4 	TotalLostPackets 	52
scalar MyScenario.node[215].nic.mac1609_4 	DroppedPacketsInMac 	0
scalar MyScenario.node[215].nic.mac1609_4 	TooLittleTime 	0
scalar MyScenario.node[215].nic.mac1609_4 	TimesIntoBackoff 	1
scalar MyScenario.node[215].nic.mac1609_4 	SlotsBackoff 	0
scalar MyScenario.node[215].nic.mac1609_4 	NumInternalContention 	0
scalar MyScenario.node[215].nic.mac1609_4 	totalBusyTime 	0.004177090941
scalar MyScenario.node[215].veinsmobility 	startTime 	1
scalar MyScenario.node[215].veinsmobility 	totalTime 	21
scalar MyScenario.node[215].veinsmobility 	stopTime 	23
scalar MyScenario.node[215].veinsmobility 	minSpeed 	0.78594462496318
scalar MyScenario.node[215].veinsmobility 	maxSpeed 	13.777664760174
scalar MyScenario.node[215].veinsmobility 	totalDistance 	181.47382800731
scalar MyScenario.node[215].veinsmobility 	totalCO2Emission 	76.81971926739
scalar MyScenario.node[75].appl 	generatedWSMs 	1
scalar MyScenario.node[75].appl 	receivedWSMs 	1
scalar MyScenario.node[75].appl 	generatedBSMs 	0
scalar MyScenario.node[75].appl 	receivedBSMs 	0
scalar MyScenario.node[75].appl 	generatedWSAs 	0
scalar MyScenario.node[75].appl 	receivedWSAs 	0
scalar MyScenario.node[75].nic.phy80211p 	busyTime 	5.4133333333333e-05
scalar MyScenario.node[75].nic.mac1609_4 	ReceivedUnicastPackets 	0
scalar MyScenario.node[75].nic.mac1609_4 	ReceivedBroadcasts 	1
scalar MyScenario.node[75].nic.mac1609_4 	SentPackets 	1
scalar MyScenario.node[75].nic.mac1609_4 	SNIRLostPackets 	6
scalar MyScenario.node[75].nic.mac1609_4 	RXTXLostPackets 	19
scalar MyScenario.node[75].nic.mac1609_4 	TotalLostPackets 	25
scalar MyScenario.node[75].nic.mac1609_4 	DroppedPacketsInMac 	0
scalar MyScenario.node[75].nic.mac1609_4 	TooLittleTime 	0
scalar MyScenario.node[75].nic.mac1609_4 	TimesIntoBackoff 	1
scalar MyScenario.node[75].nic.mac1609_4 	SlotsBackoff 	3
scalar MyScenario.node[75].nic.mac1609_4 	NumInternalContention 	0
scalar MyScenario.node[75].nic.mac1609_4 	totalBusyTime 	0.000697093209
scalar MyScenario.node[75].veinsmobility 	startTime 	1
scalar MyScenario.node[75].veinsmobility 	totalTime 	29
scalar MyScenario.node[75].veinsmobility 	stopTime 	31
scalar MyScenario.node[75].veinsmobility 	minSpeed 	0.48372517918804
scalar MyScenario.node[75].veinsmobility 	maxSpeed 	13.827649105922
scalar MyScenario.node[75].veinsmobility 	totalDistance 	284.05568321134
scalar MyScenario.node[75].veinsmobility 	totalCO2Emission 	97.959989520339
scalar MyScenario.node[316].appl 	generatedWSMs 	0
scalar MyScenario.node[316].appl 	receivedWSMs 	0
scalar MyScenario.node[316].appl 	generatedBSMs 	0
scalar MyScenario.node[316].appl 	receivedBSMs 	0
scalar MyScenario.node[316].appl 	generatedWSAs 	0
scalar MyScenario.node[316].appl 	receivedWSAs 	0
scalar MyScenario.node[316].nic.phy80211p 	busyTime 	0
scalar MyScenario.node[316].nic.mac1609_4 	ReceivedUnicastPackets 	0
scalar MyScenario.node[316].nic.mac1609_4 	ReceivedBroadcasts 	0
scalar MyScenario.node[316].nic.mac1609_4 	SentPackets 	0
scalar MyScenario.node[316].nic.mac1609_4 	SNIRLostPackets 	0
scalar MyScenario.node[316].nic.mac1609_4 	RXTXLostPackets 	0
scalar MyScenario.node[316].nic.mac1609_4 	TotalLostPackets 	0
scalar MyScenario.node[316].nic.mac1609_4 	DroppedPacketsInMac 	0
scalar MyScenario.node[316].nic.mac1609_4 	TooLittleTime 	0
scalar MyScenario.node[316].nic.mac1609_4 	TimesIntoBackoff 	0
scalar MyScenario.node[316].nic.mac1609_4 	SlotsBackoff 	0
scalar MyScenario.node[316].nic.mac1609_4 	NumInternalContention 	0
scalar MyScenario.node[316].nic.mac1609_4 	totalBusyTime 	0
scalar MyScenario.node[316].veinsmobility 	startTime 	4
scalar MyScenario.node[316].veinsmobility 	totalTime 	26
scalar MyScenario.node[316].veinsmobility 	stopTime 	31
scalar MyScenario.node[316].veinsmobility 	minSpeed 	2.4282166190213
scalar MyScenario.node[316].veinsmobility 	maxSpeed 	13.546295370092
scalar MyScenario.node[316].veinsmobility 	totalDistance 	267.15934858593
scalar MyScenario.node[316].veinsmobility 	totalCO2Emission 	99.701868732462
scalar MyScenario.node[279].appl 	generatedWSMs 	1
scalar MyScenario.node[279].appl 	receivedWSMs 	1
scalar MyScenario.node[279].appl 	generatedBSMs 	0
scalar MyScenario.node[279].appl 	receivedBSMs 	0
scalar MyScenario.node[279].appl 	generatedWSAs 	0
scalar MyScenario.node[279].appl 	receivedWSAs 	0
scalar MyScenario.node[279].nic.phy80211p 	busyTime 	8e-05
scalar MyScenario.node[279].nic.mac1609_4 	ReceivedUnicastPackets 	0
scalar MyScenario.node[279].nic.mac1609_4 	ReceivedBroadcasts 	1
scalar MyScenario.node[279].nic.mac1609_4 	SentPackets 	1
scalar MyScenario.node[279].nic.mac1609_4 	SNIRLostPackets 	9
scalar MyScenario.node[279].nic.mac1609_4 	RXTXLostPackets 	3
scalar MyScenario.node[279].nic.mac1609_4 	TotalLostPackets 	12
scalar MyScenario.node[279].nic.mac1609_4 	DroppedPacketsInMac 	0
scalar MyScenario.node[279].nic.mac1609_4 	TooLittleTime 	0
scalar MyScenario.node[279].nic.mac1609_4 	TimesIntoBackoff 	1
scalar MyScenario.node[279].nic.mac1609_4 	SlotsBackoff 	3
scalar MyScenario.node[279].nic.mac1609_4 	NumInternalContention 	0
scalar MyScenario.node[279].nic.mac1609_4 	totalBusyTime 	0.001161
scalar MyScenario.node[279].veinsmobility 	startTime 	4
scalar MyScenario.node[279].veinsmobility 	totalTime 	28
scalar MyScenario.node[279].veinsmobility 	stopTime 	33
scalar MyScenario.node[279].veinsmobility 	minSpeed 	1.2334490861951
scalar MyScenario.node[279].veinsmobility 	maxSpeed 	13.893040527008
scalar MyScenario.node[279].veinsmobility 	totalDistance 	275.07449809114
scalar MyScenario.node[279].veinsmobility 	totalCO2Emission 	92.848786898888
scalar MyScenario.node[365].appl 	generatedWSMs 	0
scalar MyScenario.node[365].appl 	receivedWSMs 	0
scalar MyScenario.node[365].appl 	generatedBSMs 	0
scalar MyScenario.node[365].appl 	receivedBSMs 	0
scalar MyScenario.node[365].appl 	generatedWSAs 	0
scalar MyScenario.node[365].appl 	receivedWSAs 	0
scalar MyScenario.node[365].nic.phy80211p 	busyTime 	0
scalar MyScenario.node[365].nic.mac1609_4 	ReceivedUnicastPackets 	0
scalar MyScenario.node[365].nic.mac1609_4 	ReceivedBroadcasts 	0
scalar MyScenario.node[365].nic.mac1609_4 	SentPackets 	0
scalar MyScenario.node[365].nic.mac1609_4 	SNIRLostPackets 	0
scalar MyScenario.node[365].nic.mac1609_4 	RXTXLostPackets 	0
scalar MyScenario.node[365].nic.mac1609_4 	TotalLostPackets 	0
scalar MyScenario.node[365].nic.mac1609_4 	DroppedPacketsInMac 	0
scalar MyScenario.node[365].nic.mac1609_4 	TooLittleTime 	0
scalar MyScenario.node[365].nic.mac1609_4 	TimesIntoBackoff 	0
scalar MyScenario.node[365].nic.mac1609_4 	SlotsBackoff 	0
scalar MyScenario.node[365].nic.mac1609_4 	NumInternalContention 	0
scalar MyScenario.node[365].nic.mac1609_4 	totalBusyTime 	0
scalar MyScenario.node[365].veinsmobility 	startTime 	7
scalar MyScenario.node[365].veinsmobility 	totalTime 	27
scalar MyScenario.node[365].veinsmobility 	stopTime 	35
scalar MyScenario.node[365].veinsmobility 	minSpeed 	1.9462345051346
scalar MyScenario.node[365].veinsmobility 	maxSpeed 	13.816193552781
scalar MyScenario.node[365].veinsmobility 	totalDistance 	274.94744246712
scalar MyScenario.node[365].veinsmobility 	totalCO2Emission 	97.259457155786
scalar MyScenario.node[143].appl 	generatedWSMs 	1
scalar MyScenario.node[143].appl 	receivedWSMs 	7
scalar MyScenario.node[143].appl 	generatedBSMs 	0
scalar MyScenario.node[143].appl 	receivedBSMs 	0
scalar MyScenario.node[143].appl 	generatedWSAs 	0
scalar MyScenario.node[143].appl 	receivedWSAs 	0
scalar MyScenario.node[143].nic.phy80211p 	busyTime 	0.00051176470588235
scalar MyScenario.node[143].nic.mac1609_4 	ReceivedUnicastPackets 	0
scalar MyScenario.node[143].nic.mac1609_4 	ReceivedBroadcasts 	7
scalar MyScenario.node[143].nic.mac1609_4 	SentPackets 	1
scalar MyScenario.node[143].nic.mac1609_4 	SNIRLostPackets 	68
scalar MyScenario.node[143].nic.mac1609_4 	RXTXLostPackets 	3
scalar MyScenario.node[143].nic.mac1609_4 	TotalLostPackets 	71
scalar MyScenario.node[143].nic.mac1609_4 	DroppedPacketsInMac 	0
scalar MyScenario.node[143].nic.mac1609_4 	TooLittleTime 	0
scalar MyScenario.node[143].nic.mac1609_4 	TimesIntoBackoff 	1
scalar MyScenario.node[143].nic.mac1609_4 	SlotsBackoff 	0
scalar MyScenario.node[143].nic.mac1609_4 	NumInternalContention 	0
scalar MyScenario.node[143].nic.mac1609_4 	totalBusyTime 	0.005105185744
scalar MyScenario.node[143].veinsmobility 	startTime 	1
scalar MyScenario.node[143].veinsmobility 	totalTime 	33
scalar MyScenario.node[143].veinsmobility 	stopTime 	35
scalar MyScenario.node[143].veinsmobility 	minSpeed 	2.457075393782
scalar MyScenario.node[143].veinsmobility 	maxSpeed 	13.787404827215
scalar MyScenario.node[143].veinsmobility 	totalDistance 	369.80610197166
scalar MyScenario.node[143].veinsmobility 	totalCO2Emission 	112.05448136105
scalar MyScenario.node[122].appl 	generatedWSMs 	1
scalar MyScenario.node[122].appl 	receivedWSMs 	4
scalar MyScenario.node[122].appl 	generatedBSMs 	0
scalar MyScenario.node[122].appl 	receivedBSMs 	0
scalar MyScenario.node[122].appl 	generatedWSAs 	0
scalar MyScenario.node[122].appl 	receivedWSAs 	0
scalar MyScenario.node[122].nic.phy80211p 	busyTime 	0.00021835294117647
scalar MyScenario.node[122].nic.mac1609_4 	ReceivedUnicastPackets 	0
scalar MyScenario.node[122].nic.mac1609_4 	ReceivedBroadcasts 	4
scalar MyScenario.node[122].nic.mac1609_4 	SentPackets 	1
scalar MyScenario.node[122].nic.mac1609_4 	SNIRLostPackets 	28
scalar MyScenario.node[122].nic.mac1609_4 	RXTXLostPackets 	1
scalar MyScenario.node[122].nic.mac1609_4 	TotalLostPackets 	29
scalar MyScenario.node[122].nic.mac1609_4 	DroppedPacketsInMac 	0
scalar MyScenario.node[122].nic.mac1609_4 	TooLittleTime 	0
scalar MyScenario.node[122].nic.mac1609_4 	TimesIntoBackoff 	1
scalar MyScenario.node[122].nic.mac1609_4 	SlotsBackoff 	3
scalar MyScenario.node[122].nic.mac1609_4 	NumInternalContention 	0
scalar MyScenario.node[122].nic.mac1609_4 	totalBusyTime 	0.003249
scalar MyScenario.node[122].veinsmobility 	startTime 	1
scalar MyScenario.node[122].veinsmobility 	totalTime 	33
scalar MyScenario.node[122].veinsmobility 	stopTime 	35
scalar MyScenario.node[122].veinsmobility 	minSpeed 	2.143170344457
scalar MyScenario.node[122].veinsmobility 	maxSpeed 	13.894117634697
scalar MyScenario.node[122].veinsmobility 	totalDistance 	377.38374366769
scalar MyScenario.node[122].veinsmobility 	totalCO2Emission 	106.93657952426
scalar MyScenario.node[90].appl 	generatedWSMs 	1
scalar MyScenario.node[90].appl 	receivedWSMs 	1
scalar MyScenario.node[90].appl 	generatedBSMs 	0
scalar MyScenario.node[90].appl 	receivedBSMs 	0
scalar MyScenario.node[90].appl 	generatedWSAs 	0
scalar MyScenario.node[90].appl 	receivedWSAs 	0
scalar MyScenario.node[90].nic.phy80211p 	busyTime 	1.3257142857143e-05
scalar MyScenario.node[90].nic.mac1609_4 	ReceivedUnicastPackets 	0
scalar MyScenario.node[90].nic.mac1609_4 	ReceivedBroadcasts 	1
scalar MyScenario.node[90].nic.mac1609_4 	SentPackets 	1
scalar MyScenario.node[90].nic.mac1609_4 	SNIRLostPackets 	1
scalar MyScenario.node[90].nic.mac1609_4 	RXTXLostPackets 	16
scalar MyScenario.node[90].nic.mac1609_4 	TotalLostPackets 	17
scalar MyScenario.node[90].nic.mac1609_4 	DroppedPacketsInMac 	0
scalar MyScenario.node[90].nic.mac1609_4 	TooLittleTime 	0
scalar MyScenario.node[90].nic.mac1609_4 	TimesIntoBackoff 	1
scalar MyScenario.node[90].nic.mac1609_4 	SlotsBackoff 	1
scalar MyScenario.node[90].nic.mac1609_4 	NumInternalContention 	0
scalar MyScenario.node[90].nic.mac1609_4 	totalBusyTime 	0.000697053535
scalar MyScenario.node[90].veinsmobility 	startTime 	1
scalar MyScenario.node[90].veinsmobility 	totalTime 	34
scalar MyScenario.node[90].veinsmobility 	stopTime 	36
scalar MyScenario.node[90].veinsmobility 	minSpeed 	2.0422529838281
scalar MyScenario.node[90].veinsmobility 	maxSpeed 	13.82512235099
scalar MyScenario.node[90].veinsmobility 	totalDistance 	364.24703311995
scalar MyScenario.node[90].veinsmobility 	totalCO2Emission 	127.52724161776
scalar MyScenario.node[166].appl 	generatedWSMs 	0
scalar MyScenario.node[166].appl 	receivedWSMs 	0
scalar MyScenario.node[166].appl 	generatedBSMs 	0
scalar MyScenario.node[166].appl 	receivedBSMs 	0
scalar MyScenario.node[166].appl 	generatedWSAs 	0
scalar MyScenario.node[166].appl 	receivedWSAs 	0
scalar MyScenario.node[166].nic.phy80211p 	busyTime 	6.4444444444444e-06
scalar MyScenario.node[166].nic.mac1609_4 	ReceivedUnicastPackets 	0
scalar MyScenario.node[166].nic.mac1609_4 	ReceivedBroadcasts 	0
scalar MyScenario.node[166].nic.mac1609_4 	SentPackets 	0
scalar MyScenario.node[166].nic.mac1609_4 	SNIRLostPackets 	1
scalar MyScenario.node[166].nic.mac1609_4 	RXTXLostPackets 	0
scalar MyScenario.node[166].nic.mac1609_4 	TotalLostPackets 	1
scalar MyScenario.node[166].nic.mac1609_4 	DroppedPacketsInMac 	0
scalar MyScenario.node[166].nic.mac1609_4 	TooLittleTime 	0
scalar MyScenario.node[166].nic.mac1609_4 	TimesIntoBackoff 	0
scalar MyScenario.node[166].nic.mac1609_4 	SlotsBackoff 	0
scalar MyScenario.node[166].nic.mac1609_4 	NumInternalContention 	0
scalar MyScenario.node[166].nic.mac1609_4 	totalBusyTime 	0.000232
scalar MyScenario.node[166].veinsmobility 	startTime 	1
scalar MyScenario.node[166].veinsmobility 	totalTime 	35
scalar MyScenario.node[166].veinsmobility 	stopTime 	37
scalar MyScenario.node[166].veinsmobility 	minSpeed 	0.00015447362018789
scalar MyScenario.node[166].veinsmobility 	maxSpeed 	13.734644323192
scalar MyScenario.node[166].veinsmobility 	totalDistance 	281.23318647482
scalar MyScenario.node[166].veinsmobility 	totalCO2Emission 	105.61716138805
scalar MyScenario.node[170].appl 	generatedWSMs 	0
scalar MyScenario.node[170].appl 	receivedWSMs 	0
scalar MyScenario.node[170].appl 	generatedBSMs 	0
scalar MyScenario.node[170].appl 	receivedBSMs 	0
scalar MyScenario.node[170].appl 	generatedWSAs 	0
scalar MyScenario.node[170].appl 	receivedWSAs 	0
scalar MyScenario.node[170].nic.phy80211p 	busyTime 	0
scalar MyScenario.node[170].nic.mac1609_4 	ReceivedUnicastPackets 	0
scalar MyScenario.node[170].nic.mac1609_4 	ReceivedBroadcasts 	0
scalar MyScenario.node[170].nic.mac1609_4 	SentPackets 	0
scalar MyScenario.node[170].nic.mac1609_4 	SNIRLostPackets 	0
scalar MyScenario.node[170].nic.mac1609_4 	RXTXLostPackets 	0
scalar MyScenario.node[170].nic.mac1609_4 	TotalLostPackets 	0
scalar MyScenario.node[170].nic.mac1609_4 	DroppedPacketsInMac 	0
scalar MyScenario.node[170].nic.mac1609_4 	TooLittleTime 	0
scalar MyScenario.node[170].nic.mac1609_4 	TimesIntoBackoff 	0
scalar MyScenario.node[170].nic.mac1609_4 	SlotsBackoff 	0
scalar MyScenario.node[170].nic.mac1609_4 	NumInternalContention 	0
scalar MyScenario.node[170].nic.mac1609_4 	totalBusyTime 	0
scalar MyScenario.node[170].veinsmobility 	startTime 	1
scalar MyScenario.node[170].veinsmobility 	totalTime 	35
scalar MyScenario.node[170].veinsmobility 	stopTime 	37
scalar MyScenario.node[170].veinsmobility 	minSpeed 	1.4653934769798
scalar MyScenario.node[170].veinsmobility 	maxSpeed 	13.853255488374
scalar MyScenario.node[170].veinsmobility 	totalDistance 	363.49012843669
scalar MyScenario.node[170].veinsmobility 	totalCO2Emission 	126.2152363782
scalar MyScenario.node[305].appl 	generatedWSMs 	1
scalar MyScenario.node[305].appl 	receivedWSMs 	8
scalar MyScenario.node[305].appl 	generatedBSMs 	0
scalar MyScenario.node[305].appl 	receivedBSMs 	0
scalar MyScenario.node[305].appl 	generatedWSAs 	0
scalar MyScenario.node[305].appl 	receivedWSAs 	0
scalar MyScenario.node[305].nic.phy80211p 	busyTime 	0.00043670588235294
scalar MyScenario.node[305].nic.mac1609_4 	ReceivedUnicastPackets 	0
scalar MyScenario.node[305].nic.mac1609_4 	ReceivedBroadcasts 	8
scalar MyScenario.node[305].nic.mac1609_4 	SentPackets 	1
scalar MyScenario.node[305].nic.mac1609_4 	SNIRLostPackets 	56
scalar MyScenario.node[305].nic.mac1609_4 	RXTXLostPackets 	7
scalar MyScenario.node[305].nic.mac1609_4 	TotalLostPackets 	63
scalar MyScenario.node[305].nic.mac1609_4 	DroppedPacketsInMac 	0
scalar MyScenario.node[305].nic.mac1609_4 	TooLittleTime 	0
scalar MyScenario.node[305].nic.mac1609_4 	TimesIntoBackoff 	1
scalar MyScenario.node[305].nic.mac1609_4 	SlotsBackoff 	1
scalar MyScenario.node[305].nic.mac1609_4 	NumInternalContention 	0
scalar MyScenario.node[305].nic.mac1609_4 	totalBusyTime 	0.004873141484
scalar MyScenario.node[305].veinsmobility 	startTime 	4
scalar MyScenario.node[305].veinsmobility 	totalTime 	33
scalar MyScenario.node[305].veinsmobility 	stopTime 	38
scalar MyScenario.node[305].veinsmobility 	minSpeed 	2.0779014956905
scalar MyScenario.node[305].veinsmobility 	maxSpeed 	13.83550324603
scalar MyScenario.node[305].veinsmobility 	totalDistance 	366.85431314685
scalar MyScenario.node[305].veinsmobility 	totalCO2Emission 	109.66599857851
scalar MyScenario.node[210].appl 	generatedWSMs 	1
scalar MyScenario.node[210].appl 	receivedWSMs 	13
scalar MyScenario.node[210].appl 	generatedBSMs 	0
scalar MyScenario.node[210].appl 	receivedBSMs 	0
scalar MyScenario.node[210].appl 	generatedWSAs 	0
scalar MyScenario.node[210].appl 	receivedWSAs 	0
scalar MyScenario.node[210].nic.phy80211p 	busyTime 	0.00042830769230769
scalar MyScenario.node[210].nic.mac1609_4 	ReceivedUnicastPackets 	0
scalar MyScenario.node[210].nic.mac1609_4 	ReceivedBroadcasts 	13
scalar MyScenario.node[210].nic.mac1609_4 	SentPackets 	1
scalar MyScenario.node[210].nic.mac1609_4 	SNIRLostPackets 	59
scalar MyScenario.node[210].nic.mac1609_4 	RXTXLostPackets 	1
scalar MyScenario.node[210].nic.mac1609_4 	TotalLostPackets 	60
scalar MyScenario.node[210].nic.mac1609_4 	DroppedPacketsInMac 	0
scalar MyScenario.node[210].nic.mac1609_4 	TooLittleTime 	0
scalar MyScenario.node[210].nic.mac1609_4 	TimesIntoBackoff 	1
scalar MyScenario.node[210].nic.mac1609_4 	SlotsBackoff 	3
scalar MyScenario.node[210].nic.mac1609_4 	NumInternalContention 	0
scalar MyScenario.node[210].nic.mac1609_4 	totalBusyTime 	0.006033
scalar MyScenario.node[210].veinsmobility 	startTime 	1
scalar MyScenario.node[210].veinsmobility 	totalTime 	38
scalar MyScenario.node[210].veinsmobility 	stopTime 	40
scalar MyScenario.node[210].veinsmobility 	minSpeed 	1.0834720193633
scalar MyScenario.node[210].veinsmobility 	maxSpeed 	13.846274212142
scalar MyScenario.node[210].veinsmobility 	totalDistance 	362.77704714053
scalar MyScenario.node[210].veinsmobility 	totalCO2Emission 	134.64296957236
scalar MyScenario.node[403].appl 	generatedWSMs 	1
scalar MyScenario.node[403].appl 	receivedWSMs 	1
scalar MyScenario.node[403].appl 	generatedBSMs 	0
scalar MyScenario.node[403].appl 	receivedBSMs 	0
scalar MyScenario.node[403].appl 	generatedWSAs 	0
scalar MyScenario.node[403].appl 	receivedWSAs 	0
scalar MyScenario.node[403].nic.phy80211p 	busyTime 	8.5925925925926e-06
scalar MyScenario.node[403].nic.mac1609_4 	ReceivedUnicastPackets 	0
scalar MyScenario.node[403].nic.mac1609_4 	ReceivedBroadcasts 	1
scalar MyScenario.node[403].nic.mac1609_4 	SentPackets 	1
scalar MyScenario.node[403].nic.mac1609_4 	SNIRLostPackets 	0
scalar MyScenario.node[403].nic.mac1609_4 	RXTXLostPackets 	9
scalar MyScenario.node[403].nic.mac1609_4 	TotalLostPackets 	9
scalar MyScenario.node[403].nic.mac1609_4 	DroppedPacketsInMac 	0
scalar MyScenario.node[403].nic.mac1609_4 	TooLittleTime 	0
scalar MyScenario.node[403].nic.mac1609_4 	TimesIntoBackoff 	1
scalar MyScenario.node[403].nic.mac1609_4 	SlotsBackoff 	2
scalar MyScenario.node[403].nic.mac1609_4 	NumInternalContention 	0
scalar MyScenario.node[403].nic.mac1609_4 	totalBusyTime 	0.000465
scalar MyScenario.node[403].veinsmobility 	startTime 	15
scalar MyScenario.node[403].veinsmobility 	totalTime 	26
scalar MyScenario.node[403].veinsmobility 	stopTime 	42
scalar MyScenario.node[403].veinsmobility 	minSpeed 	0.059937818679485
scalar MyScenario.node[403].veinsmobility 	maxSpeed 	13.833541163034
scalar MyScenario.node[403].veinsmobility 	totalDistance 	265.23172789285
scalar MyScenario.node[403].veinsmobility 	totalCO2Emission 	70.572824469469
scalar MyScenario.node[1].appl 	generatedWSMs 	0
scalar MyScenario.node[1].appl 	receivedWSMs 	0
scalar MyScenario.node[1].appl 	generatedBSMs 	0
scalar MyScenario.node[1].appl 	receivedBSMs 	0
scalar MyScenario.node[1].appl 	generatedWSAs 	0
scalar MyScenario.node[1].appl 	receivedWSAs 	0
scalar MyScenario.node[1].nic.phy80211p 	busyTime 	0.00010185365853659
scalar MyScenario.node[1].nic.mac1609_4 	ReceivedUnicastPackets 	0
scalar MyScenario.node[1].nic.mac1609_4 	ReceivedBroadcasts 	0
scalar MyScenario.node[1].nic.mac1609_4 	SentPackets 	0
scalar MyScenario.node[1].nic.mac1609_4 	SNIRLostPackets 	18
scalar MyScenario.node[1].nic.mac1609_4 	RXTXLostPackets 	0
scalar MyScenario.node[1].nic.mac1609_4 	TotalLostPackets 	18
scalar MyScenario.node[1].nic.mac1609_4 	DroppedPacketsInMac 	0
scalar MyScenario.node[1].nic.mac1609_4 	TooLittleTime 	0
scalar MyScenario.node[1].nic.mac1609_4 	TimesIntoBackoff 	0
scalar MyScenario.node[1].nic.mac1609_4 	SlotsBackoff 	0
scalar MyScenario.node[1].nic.mac1609_4 	NumInternalContention 	0
scalar MyScenario.node[1].nic.mac1609_4 	totalBusyTime 	0.000928
scalar MyScenario.node[1].veinsmobility 	startTime 	1
scalar MyScenario.node[1].veinsmobility 	totalTime 	40
scalar MyScenario.node[1].veinsmobility 	stopTime 	42
scalar MyScenario.node[1].veinsmobility 	minSpeed 	1.9858957728371
scalar MyScenario.node[1].veinsmobility 	maxSpeed 	13.797043006471
scalar MyScenario.node[1].veinsmobility 	totalDistance 	476.57774526836
scalar MyScenario.node[1].veinsmobility 	totalCO2Emission 	118.77157135352
scalar MyScenario.node[132].appl 	generatedWSMs 	1
scalar MyScenario.node[132].appl 	receivedWSMs 	12
scalar MyScenario.node[132].appl 	generatedBSMs 	0
scalar MyScenario.node[132].appl 	receivedBSMs 	0
scalar MyScenario.node[132].appl 	generatedWSAs 	0
scalar MyScenario.node[132].appl 	receivedWSAs 	0
scalar MyScenario.node[132].nic.phy80211p 	busyTime 	0.00027066666666667
scalar MyScenario.node[132].nic.mac1609_4 	ReceivedUnicastPackets 	0
scalar MyScenario.node[132].nic.mac1609_4 	ReceivedBroadcasts 	12
scalar MyScenario.node[132].nic.mac1609_4 	SentPackets 	1
scalar MyScenario.node[132].nic.mac1609_4 	SNIRLostPackets 	37
scalar MyScenario.node[132].nic.mac1609_4 	RXTXLostPackets 	3
scalar MyScenario.node[132].nic.mac1609_4 	TotalLostPackets 	40
scalar MyScenario.node[132].nic.mac1609_4 	DroppedPacketsInMac 	0
scalar MyScenario.node[132].nic.mac1609_4 	TooLittleTime 	0
scalar MyScenario.node[132].nic.mac1609_4 	TimesIntoBackoff 	1
scalar MyScenario.node[132].nic.mac1609_4 	SlotsBackoff 	1
scalar MyScenario.node[132].nic.mac1609_4 	NumInternalContention 	0
scalar MyScenario.node[132].nic.mac1609_4 	totalBusyTime 	0.004873
scalar MyScenario.node[132].veinsmobility 	startTime 	1
scalar MyScenario.node[132].veinsmobility 	totalTime 	41
scalar MyScenario.node[132].veinsmobility 	stopTime 	43
scalar MyScenario.node[132].veinsmobility 	minSpeed 	0.00036983049819823
scalar MyScenario.node[132].veinsmobility 	maxSpeed 	13.845258861128
scalar MyScenario.node[132].veinsmobility 	totalDistance 	358.65272408061
scalar MyScenario.node[132].veinsmobility 	totalCO2Emission 	116.40304372665
scalar MyScenario.node[55].appl 	generatedWSMs 	0
scalar MyScenario.node[55].appl 	receivedWSMs 	0
scalar MyScenario.node[55].appl 	generatedBSMs 	0
scalar MyScenario.node[55].appl 	receivedBSMs 	0
scalar MyScenario.node[55].appl 	generatedWSAs 	0
scalar MyScenario.node[55].appl 	receivedWSAs 	0
scalar MyScenario.node[55].nic.phy80211p 	busyTime 	5.5238095238095e-05
scalar MyScenario.node[55].nic.mac1609_4 	ReceivedUnicastPackets 	0
scalar MyScenario.node[55].nic.mac1609_4 	ReceivedBroadcasts 	0
scalar MyScenario.node[55].nic.mac1609_4 	SentPackets 	0
scalar MyScenario.node[55].nic.mac1609_4 	SNIRLostPackets 	10
scalar MyScenario.node[55].nic.mac1609_4 	RXTXLostPackets 	0
scalar MyScenario.node[55].nic.mac1609_4 	TotalLostPackets 	10
scalar MyScenario.node[55].nic.mac1609_4 	DroppedPacketsInMac 	0
scalar MyScenario.node[55].nic.mac1609_4 	TooLittleTime 	0
scalar MyScenario.node[55].nic.mac1609_4 	TimesIntoBackoff 	0
scalar MyScenario.node[55].nic.mac1609_4 	SlotsBackoff 	0
scalar MyScenario.node[55].nic.mac1609_4 	NumInternalContention 	0
scalar MyScenario.node[55].nic.mac1609_4 	totalBusyTime 	0.000464
scalar MyScenario.node[55].veinsmobility 	startTime 	1
scalar MyScenario.node[55].veinsmobility 	totalTime 	41
scalar MyScenario.node[55].veinsmobility 	stopTime 	43
scalar MyScenario.node[55].veinsmobility 	minSpeed 	1.9367472901708
scalar MyScenario.node[55].veinsmobility 	maxSpeed 	13.720403701789
scalar MyScenario.node[55].veinsmobility 	totalDistance 	473.4242039177
scalar MyScenario.node[55].veinsmobility 	totalCO2Emission 	134.80068683165
scalar MyScenario.node[24].appl 	generatedWSMs 	1
scalar MyScenario.node[24].appl 	receivedWSMs 	6
scalar MyScenario.node[24].appl 	generatedBSMs 	0
scalar MyScenario.node[24].appl 	receivedBSMs 	0
scalar MyScenario.node[24].appl 	generatedWSAs 	0
scalar MyScenario.node[24].appl 	receivedWSAs 	0
scalar MyScenario.node[24].nic.phy80211p 	busyTime 	0.00019333333333333
scalar MyScenario.node[24].nic.mac1609_4 	ReceivedUnicastPackets 	0
scalar MyScenario.node[24].nic.mac1609_4 	ReceivedBroadcasts 	6
scalar MyScenario.node[24].nic.mac1609_4 	SentPackets 	1
scalar MyScenario.node[24].nic.mac1609_4 	SNIRLostPackets 	29
scalar MyScenario.node[24].nic.mac1609_4 	RXTXLostPackets 	14
scalar MyScenario.node[24].nic.mac1609_4 	TotalLostPackets 	43
scalar MyScenario.node[24].nic.mac1609_4 	DroppedPacketsInMac 	0
scalar MyScenario.node[24].nic.mac1609_4 	TooLittleTime 	0
scalar MyScenario.node[24].nic.mac1609_4 	TimesIntoBackoff 	1
scalar MyScenario.node[24].nic.mac1609_4 	SlotsBackoff 	2
scalar MyScenario.node[24].nic.mac1609_4 	NumInternalContention 	0
scalar MyScenario.node[24].nic.mac1609_4 	totalBusyTime 	0.003249000673
scalar MyScenario.node[24].veinsmobility 	startTime 	1
scalar MyScenario.node[24].veinsmobility 	totalTime 	41
scalar MyScenario.node[24].veinsmobility 	stopTime 	43
scalar MyScenario.node[24].veinsmobility 	minSpeed 	1.790386059205
scalar MyScenario.node[24].veinsmobility 	maxSpeed 	13.850198884821
scalar MyScenario.node[24].veinsmobility 	totalDistance 	469.23900680197
scalar MyScenario.node[24].veinsmobility 	totalCO2Emission 	136.40442106201
scalar MyScenario.node[231].appl 	generatedWSMs 	0
scalar MyScenario.node[231].appl 	receivedWSMs 	0
scalar MyScenario.node[231].appl 	generatedBSMs 	0
scalar MyScenario.node[231].appl 	receivedBSMs 	0
scalar MyScenario.node[231].appl 	generatedWSAs 	0
scalar MyScenario.node[231].appl 	receivedWSAs 	0
scalar MyScenario.node[231].nic.phy80211p 	busyTime 	0
scalar MyScenario.node[231].nic.mac1609_4 	ReceivedUnicastPackets 	0
scalar MyScenario.node[231].nic.mac1609_4 	ReceivedBroadcasts 	0
scalar MyScenario.node[231].nic.mac1609_4 	SentPackets 	0
scalar MyScenario.node[231].nic.mac1609_4 	SNIRLostPackets 	0
scalar MyScenario.node[231].nic.mac1609_4 	RXTXLostPackets 	0
scalar MyScenario.node[231].nic.mac1609_4 	TotalLostPackets 	0
scalar MyScenario.node[231].nic.mac1609_4 	DroppedPacketsInMac 	0
scalar MyScenario.node[231].nic.mac1609_4 	TooLittleTime 	0
scalar MyScenario.node[231].nic.mac1609_4 	TimesIntoBackoff 	0
scalar MyScenario.node[231].nic.mac1609_4 	SlotsBackoff 	0
scalar MyScenario.node[231].nic.mac1609_4 	NumInternalContention 	0
scalar MyScenario.node[231].nic.mac1609_4 	totalBusyTime 	0
scalar MyScenario.node[231].veinsmobility 	startTime 	4
scalar MyScenario.node[231].veinsmobility 	totalTime 	39
scalar MyScenario.node[231].veinsmobility 	stopTime 	44
scalar MyScenario.node[231].veinsmobility 	minSpeed 	1.3548225797807e-05
scalar MyScenario.node[231].veinsmobility 	maxSpeed 	13.789815307385
scalar MyScenario.node[231].veinsmobility 	totalDistance 	277.42282651992
scalar MyScenario.node[231].veinsmobility 	totalCO2Emission 	129.65206250195
scalar MyScenario.node[142].appl 	generatedWSMs 	0
scalar MyScenario.node[142].appl 	receivedWSMs 	0
scalar MyScenario.node[142].appl 	generatedBSMs 	0
scalar MyScenario.node[142].appl 	receivedBSMs 	0
scalar MyScenario.node[142].appl 	generatedWSAs 	0
scalar MyScenario.node[142].appl 	receivedWSAs 	0
scalar MyScenario.node[142].nic.phy80211p 	busyTime 	6.4744186046512e-05
scalar MyScenario.node[142].nic.mac1609_4 	ReceivedUnicastPackets 	0
scalar MyScenario.node[142].nic.mac1609_4 	ReceivedBroadcasts 	0
scalar MyScenario.node[142].nic.mac1609_4 	SentPackets 	0
scalar MyScenario.node[142].nic.mac1609_4 	SNIRLostPackets 	12
scalar MyScenario.node[142].nic.mac1609_4 	RXTXLostPackets 	0
scalar MyScenario.node[142].nic.mac1609_4 	TotalLostPackets 	12
scalar MyScenario.node[142].nic.mac1609_4 	DroppedPacketsInMac 	0
scalar MyScenario.node[142].nic.mac1609_4 	TooLittleTime 	0
scalar MyScenario.node[142].nic.mac1609_4 	TimesIntoBackoff 	0
scalar MyScenario.node[142].nic.mac1609_4 	SlotsBackoff 	0
scalar MyScenario.node[142].nic.mac1609_4 	NumInternalContention 	0
scalar MyScenario.node[142].nic.mac1609_4 	totalBusyTime 	0.00116
scalar MyScenario.node[142].veinsmobility 	startTime 	1
scalar MyScenario.node[142].veinsmobility 	totalTime 	42
scalar MyScenario.node[142].veinsmobility 	stopTime 	44
scalar MyScenario.node[142].veinsmobility 	minSpeed 	2.5419567476027
scalar MyScenario.node[142].veinsmobility 	maxSpeed 	13.888367935782
scalar MyScenario.node[142].veinsmobility 	totalDistance 	468.42514187297
scalar MyScenario.node[142].veinsmobility 	totalCO2Emission 	142.2700644241
scalar MyScenario.node[27].appl 	generatedWSMs 	0
scalar MyScenario.node[27].appl 	receivedWSMs 	0
scalar MyScenario.node[27].appl 	generatedBSMs 	0
scalar MyScenario.node[27].appl 	receivedBSMs 	0
scalar MyScenario.node[27].appl 	generatedWSAs 	0
scalar MyScenario.node[27].appl 	receivedWSAs 	0
scalar MyScenario.node[27].nic.phy80211p 	busyTime 	0.00015818181818182
scalar MyScenario.node[27].nic.mac1609_4 	ReceivedUnicastPackets 	0
scalar MyScenario.node[27].nic.mac1609_4 	ReceivedBroadcasts 	0
scalar MyScenario.node[27].nic.mac1609_4 	SentPackets 	0
scalar MyScenario.node[27].nic.mac1609_4 	SNIRLostPackets 	30
scalar MyScenario.node[27].nic.mac1609_4 	RXTXLostPackets 	0
scalar MyScenario.node[27].nic.mac1609_4 	TotalLostPackets 	30
scalar MyScenario.node[27].nic.mac1609_4 	DroppedPacketsInMac 	0
scalar MyScenario.node[27].nic.mac1609_4 	TooLittleTime 	0
scalar MyScenario.node[27].nic.mac1609_4 	TimesIntoBackoff 	0
scalar MyScenario.node[27].nic.mac1609_4 	SlotsBackoff 	0
scalar MyScenario.node[27].nic.mac1609_4 	NumInternalContention 	0
scalar MyScenario.node[27].nic.mac1609_4 	totalBusyTime 	0.000928
scalar MyScenario.node[27].veinsmobility 	startTime 	1
scalar MyScenario.node[27].veinsmobility 	totalTime 	43
scalar MyScenario.node[27].veinsmobility 	stopTime 	45
scalar MyScenario.node[27].veinsmobility 	minSpeed 	2.4501916706562
scalar MyScenario.node[27].veinsmobility 	maxSpeed 	13.824347273586
scalar MyScenario.node[27].veinsmobility 	totalDistance 	472.56455533918
scalar MyScenario.node[27].veinsmobility 	totalCO2Emission 	144.14536530692
scalar MyScenario.node[63].appl 	generatedWSMs 	0
scalar MyScenario.node[63].appl 	receivedWSMs 	0
scalar MyScenario.node[63].appl 	generatedBSMs 	0
scalar MyScenario.node[63].appl 	receivedBSMs 	0
scalar MyScenario.node[63].appl 	generatedWSAs 	0
scalar MyScenario.node[63].appl 	receivedWSAs 	0
scalar MyScenario.node[63].nic.phy80211p 	busyTime 	0.00012127272727273
scalar MyScenario.node[63].nic.mac1609_4 	ReceivedUnicastPackets 	0
scalar MyScenario.node[63].nic.mac1609_4 	ReceivedBroadcasts 	0
scalar MyScenario.node[63].nic.mac1609_4 	SentPackets 	0
scalar MyScenario.node[63].nic.mac1609_4 	SNIRLostPackets 	23
scalar MyScenario.node[63].nic.mac1609_4 	RXTXLostPackets 	0
scalar MyScenario.node[63].nic.mac1609_4 	TotalLostPackets 	23
scalar MyScenario.node[63].nic.mac1609_4 	DroppedPacketsInMac 	0
scalar MyScenario.node[63].nic.mac1609_4 	TooLittleTime 	0
scalar MyScenario.node[63].nic.mac1609_4 	TimesIntoBackoff 	0
scalar MyScenario.node[63].nic.mac1609_4 	SlotsBackoff 	0
scalar MyScenario.node[63].nic.mac1609_4 	NumInternalContention 	0
scalar MyScenario.node[63].nic.mac1609_4 	totalBusyTime 	0.00116
scalar MyScenario.node[63].veinsmobility 	startTime 	1
scalar MyScenario.node[63].veinsmobility 	totalTime 	43
scalar MyScenario.node[63].veinsmobility 	stopTime 	45
scalar MyScenario.node[63].veinsmobility 	minSpeed 	2.3841699838871
scalar MyScenario.node[63].veinsmobility 	maxSpeed 	13.819700974342
scalar MyScenario.node[63].veinsmobility 	totalDistance 	469.79355328352
scalar MyScenario.node[63].veinsmobility 	totalCO2Emission 	161.32383806038
scalar MyScenario.node[221].appl 	generatedWSMs 	1
scalar MyScenario.node[221].appl 	receivedWSMs 	6
scalar MyScenario.node[221].appl 	generatedBSMs 	0
scalar MyScenario.node[221].appl 	receivedBSMs 	0
scalar MyScenario.node[221].appl 	generatedWSAs 	0
scalar MyScenario.node[221].appl 	receivedWSAs 	0
scalar MyScenario.node[221].nic.phy80211p 	busyTime 	0.00054309090909091
scalar MyScenario.node[221].nic.mac1609_4 	ReceivedUnicastPackets 	0
scalar MyScenario.node[221].nic.mac1609_4 	ReceivedBroadcasts 	6
scalar MyScenario.node[221].nic.mac1609_4 	SentPackets 	1
scalar MyScenario.node[221].nic.mac1609_4 	SNIRLostPackets 	97
scalar MyScenario.node[221].nic.mac1609_4 	RXTXLostPackets 	15
scalar MyScenario.node[221].nic.mac1609_4 	TotalLostPackets 	112
scalar MyScenario.node[221].nic.mac1609_4 	DroppedPacketsInMac 	0
scalar MyScenario.node[221].nic.mac1609_4 	TooLittleTime 	0
scalar MyScenario.node[221].nic.mac1609_4 	TimesIntoBackoff 	1
scalar MyScenario.node[221].nic.mac1609_4 	SlotsBackoff 	0
scalar MyScenario.node[221].nic.mac1609_4 	NumInternalContention 	0
scalar MyScenario.node[221].nic.mac1609_4 	totalBusyTime 	0.005569613594
scalar MyScenario.node[221].veinsmobility 	startTime 	1
scalar MyScenario.node[221].veinsmobility 	totalTime 	43
scalar MyScenario.node[221].veinsmobility 	stopTime 	45
scalar MyScenario.node[221].veinsmobility 	minSpeed 	1.6461430961499
scalar MyScenario.node[221].veinsmobility 	maxSpeed 	13.892584518646
scalar MyScenario.node[221].veinsmobility 	totalDistance 	468.08591135002
scalar MyScenario.node[221].veinsmobility 	totalCO2Emission 	127.5090973996
scalar MyScenario.node[91].appl 	generatedWSMs 	1
scalar MyScenario.node[91].appl 	receivedWSMs 	7
scalar MyScenario.node[91].appl 	generatedBSMs 	0
scalar MyScenario.node[91].appl 	receivedBSMs 	0
scalar MyScenario.node[91].appl 	generatedWSAs 	0
scalar MyScenario.node[91].appl 	receivedWSAs 	0
scalar MyScenario.node[91].nic.phy80211p 	busyTime 	0.00029527272727273
scalar MyScenario.node[91].nic.mac1609_4 	ReceivedUnicastPackets 	0
scalar MyScenario.node[91].nic.mac1609_4 	ReceivedBroadcasts 	7
scalar MyScenario.node[91].nic.mac1609_4 	SentPackets 	1
scalar MyScenario.node[91].nic.mac1609_4 	SNIRLostPackets 	49
scalar MyScenario.node[91].nic.mac1609_4 	RXTXLostPackets 	15
scalar MyScenario.node[91].nic.mac1609_4 	TotalLostPackets 	64
scalar MyScenario.node[91].nic.mac1609_4 	DroppedPacketsInMac 	0
scalar MyScenario.node[91].nic.mac1609_4 	TooLittleTime 	0
scalar MyScenario.node[91].nic.mac1609_4 	TimesIntoBackoff 	1
scalar MyScenario.node[91].nic.mac1609_4 	SlotsBackoff 	1
scalar MyScenario.node[91].nic.mac1609_4 	NumInternalContention 	0
scalar MyScenario.node[91].nic.mac1609_4 	totalBusyTime 	0.003481010636
scalar MyScenario.node[91].veinsmobility 	startTime 	1
scalar MyScenario.node[91].veinsmobility 	totalTime 	43
scalar MyScenario.node[91].veinsmobility 	stopTime 	45
scalar MyScenario.node[91].veinsmobility 	minSpeed 	1.6764777247794
scalar MyScenario.node[91].veinsmobility 	maxSpeed 	13.790435172687
scalar MyScenario.node[91].veinsmobility 	totalDistance 	475.1296563181
scalar MyScenario.node[91].veinsmobility 	totalCO2Emission 	143.32422762808
scalar MyScenario.node[22].appl 	generatedWSMs 	0
scalar MyScenario.node[22].appl 	receivedWSMs 	0
scalar MyScenario.node[22].appl 	generatedBSMs 	0
scalar MyScenario.node[22].appl 	receivedBSMs 	0
scalar MyScenario.node[22].appl 	generatedWSAs 	0
scalar MyScenario.node[22].appl 	receivedWSAs 	0
scalar MyScenario.node[22].nic.phy80211p 	busyTime 	1.0311111111111e-05
scalar MyScenario.node[22].nic.mac1609_4 	ReceivedUnicastPackets 	0
scalar MyScenario.node[22].nic.mac1609_4 	ReceivedBroadcasts 	0
scalar MyScenario.node[22].nic.mac1609_4 	SentPackets 	0
scalar MyScenario.node[22].nic.mac1609_4 	SNIRLostPackets 	2
scalar MyScenario.node[22].nic.mac1609_4 	RXTXLostPackets 	0
scalar MyScenario.node[22].nic.mac1609_4 	TotalLostPackets 	2
scalar MyScenario.node[22].nic.mac1609_4 	DroppedPacketsInMac 	0
scalar MyScenario.node[22].nic.mac1609_4 	TooLittleTime 	0
scalar MyScenario.node[22].nic.mac1609_4 	TimesIntoBackoff 	0
scalar MyScenario.node[22].nic.mac1609_4 	SlotsBackoff 	0
scalar MyScenario.node[22].nic.mac1609_4 	NumInternalContention 	0
scalar MyScenario.node[22].nic.mac1609_4 	totalBusyTime 	0.000232
scalar MyScenario.node[22].veinsmobility 	startTime 	1
scalar MyScenario.node[22].veinsmobility 	totalTime 	44
scalar MyScenario.node[22].veinsmobility 	stopTime 	46
scalar MyScenario.node[22].veinsmobility 	minSpeed 	0.042018231265561
scalar MyScenario.node[22].veinsmobility 	maxSpeed 	13.881982000219
scalar MyScenario.node[22].veinsmobility 	totalDistance 	461.64340254194
scalar MyScenario.node[22].veinsmobility 	totalCO2Emission 	127.95249385766
scalar MyScenario.node[246].appl 	generatedWSMs 	0
scalar MyScenario.node[246].appl 	receivedWSMs 	0
scalar MyScenario.node[246].appl 	generatedBSMs 	0
scalar MyScenario.node[246].appl 	receivedBSMs 	0
scalar MyScenario.node[246].appl 	generatedWSAs 	0
scalar MyScenario.node[246].appl 	receivedWSAs 	0
scalar MyScenario.node[246].nic.phy80211p 	busyTime 	0
scalar MyScenario.node[246].nic.mac1609_4 	ReceivedUnicastPackets 	0
scalar MyScenario.node[246].nic.mac1609_4 	ReceivedBroadcasts 	0
scalar MyScenario.node[246].nic.mac1609_4 	SentPackets 	0
scalar MyScenario.node[246].nic.mac1609_4 	SNIRLostPackets 	0
scalar MyScenario.node[246].nic.mac1609_4 	RXTXLostPackets 	0
scalar MyScenario.node[246].nic.mac1609_4 	TotalLostPackets 	0
scalar MyScenario.node[246].nic.mac1609_4 	DroppedPacketsInMac 	0
scalar MyScenario.node[246].nic.mac1609_4 	TooLittleTime 	0
scalar MyScenario.node[246].nic.mac1609_4 	TimesIntoBackoff 	0
scalar MyScenario.node[246].nic.mac1609_4 	SlotsBackoff 	0
scalar MyScenario.node[246].nic.mac1609_4 	NumInternalContention 	0
scalar MyScenario.node[246].nic.mac1609_4 	totalBusyTime 	0
scalar MyScenario.node[246].veinsmobility 	startTime 	4
scalar MyScenario.node[246].veinsmobility 	totalTime 	41
scalar MyScenario.node[246].veinsmobility 	stopTime 	46
scalar MyScenario.node[246].veinsmobility 	minSpeed 	0.0042415718763089
scalar MyScenario.node[246].veinsmobility 	maxSpeed 	13.84644534823
scalar MyScenario.node[246].veinsmobility 	totalDistance 	382.28750353977
scalar MyScenario.node[246].veinsmobility 	totalCO2Emission 	118.74985426808
scalar MyScenario.node[176].appl 	generatedWSMs 	0
scalar MyScenario.node[176].appl 	receivedWSMs 	0
scalar MyScenario.node[176].appl 	generatedBSMs 	0
scalar MyScenario.node[176].appl 	receivedBSMs 	0
scalar MyScenario.node[176].appl 	generatedWSAs 	0
scalar MyScenario.node[176].appl 	receivedWSAs 	0
scalar MyScenario.node[176].nic.phy80211p 	busyTime 	5.6711111111111e-05
scalar MyScenario.node[176].nic.mac1609_4 	ReceivedUnicastPackets 	0
scalar MyScenario.node[176].nic.mac1609_4 	ReceivedBroadcasts 	0
scalar MyScenario.node[176].nic.mac1609_4 	SentPackets 	0
scalar MyScenario.node[176].nic.mac1609_4 	SNIRLostPackets 	11
scalar MyScenario.node[176].nic.mac1609_4 	RXTXLostPackets 	0
scalar MyScenario.node[176].nic.mac1609_4 	TotalLostPackets 	11
scalar MyScenario.node[176].nic.mac1609_4 	DroppedPacketsInMac 	0
scalar MyScenario.node[176].nic.mac1609_4 	TooLittleTime 	0
scalar MyScenario.node[176].nic.mac1609_4 	TimesIntoBackoff 	0
scalar MyScenario.node[176].nic.mac1609_4 	SlotsBackoff 	0
scalar MyScenario.node[176].nic.mac1609_4 	NumInternalContention 	0
scalar MyScenario.node[176].nic.mac1609_4 	totalBusyTime 	0.000232
scalar MyScenario.node[176].veinsmobility 	startTime 	1
scalar MyScenario.node[176].veinsmobility 	totalTime 	44
scalar MyScenario.node[176].veinsmobility 	stopTime 	46
scalar MyScenario.node[176].veinsmobility 	minSpeed 	2.023371372791
scalar MyScenario.node[176].veinsmobility 	maxSpeed 	13.763914973172
scalar MyScenario.node[176].veinsmobility 	totalDistance 	468.31187573602
scalar MyScenario.node[176].veinsmobility 	totalCO2Emission 	154.31468479673
scalar MyScenario.node[62].appl 	generatedWSMs 	1
scalar MyScenario.node[62].appl 	receivedWSMs 	11
scalar MyScenario.node[62].appl 	generatedBSMs 	0
scalar MyScenario.node[62].appl 	receivedBSMs 	0
scalar MyScenario.node[62].appl 	generatedWSAs 	0
scalar MyScenario.node[62].appl 	receivedWSAs 	0
scalar MyScenario.node[62].nic.phy80211p 	busyTime 	0.0003248
scalar MyScenario.node[62].nic.mac1609_4 	ReceivedUnicastPackets 	0
scalar MyScenario.node[62].nic.mac1609_4 	ReceivedBroadcasts 	11
scalar MyScenario.node[62].nic.mac1609_4 	SentPackets 	1
scalar MyScenario.node[62].nic.mac1609_4 	SNIRLostPackets 	52
scalar MyScenario.node[62].nic.mac1609_4 	RXTXLostPackets 	14
scalar MyScenario.node[62].nic.mac1609_4 	TotalLostPackets 	66
scalar MyScenario.node[62].nic.mac1609_4 	DroppedPacketsInMac 	0
scalar MyScenario.node[62].nic.mac1609_4 	TooLittleTime 	0
scalar MyScenario.node[62].nic.mac1609_4 	TimesIntoBackoff 	1
scalar MyScenario.node[62].nic.mac1609_4 	SlotsBackoff 	2
scalar MyScenario.node[62].nic.mac1609_4 	NumInternalContention 	0
scalar MyScenario.node[62].nic.mac1609_4 	totalBusyTime 	0.005569093943
scalar MyScenario.node[62].veinsmobility 	startTime 	1
scalar MyScenario.node[62].veinsmobility 	totalTime 	44
scalar MyScenario.node[62].veinsmobility 	stopTime 	46
scalar MyScenario.node[62].veinsmobility 	minSpeed 	2.4944169453112
scalar MyScenario.node[62].veinsmobility 	maxSpeed 	13.801810056507
scalar MyScenario.node[62].veinsmobility 	totalDistance 	464.13075351915
scalar MyScenario.node[62].veinsmobility 	totalCO2Emission 	144.89581084026
scalar MyScenario.node[384].appl 	generatedWSMs 	0
scalar MyScenario.node[384].appl 	receivedWSMs 	0
scalar MyScenario.node[384].appl 	generatedBSMs 	0
scalar MyScenario.node[384].appl 	receivedBSMs 	0
scalar MyScenario.node[384].appl 	generatedWSAs 	0
scalar MyScenario.node[384].appl 	receivedWSAs 	0
scalar MyScenario.node[384].nic.phy80211p 	busyTime 	7.7333333333333e-05
scalar MyScenario.node[384].nic.mac1609_4 	ReceivedUnicastPackets 	0
scalar MyScenario.node[384].nic.mac1609_4 	ReceivedBroadcasts 	0
scalar MyScenario.node[384].nic.mac1609_4 	SentPackets 	0
scalar MyScenario.node[384].nic.mac1609_4 	SNIRLostPackets 	13
scalar MyScenario.node[384].nic.mac1609_4 	RXTXLostPackets 	0
scalar MyScenario.node[384].nic.mac1609_4 	TotalLostPackets 	13
scalar MyScenario.node[384].nic.mac1609_4 	DroppedPacketsInMac 	0
scalar MyScenario.node[384].nic.mac1609_4 	TooLittleTime 	0
scalar MyScenario.node[384].nic.mac1609_4 	TimesIntoBackoff 	0
scalar MyScenario.node[384].nic.mac1609_4 	SlotsBackoff 	0
scalar MyScenario.node[384].nic.mac1609_4 	NumInternalContention 	0
scalar MyScenario.node[384].nic.mac1609_4 	totalBusyTime 	0.000232
scalar MyScenario.node[384].veinsmobility 	startTime 	7
scalar MyScenario.node[384].veinsmobility 	totalTime 	38
scalar MyScenario.node[384].veinsmobility 	stopTime 	46
scalar MyScenario.node[384].veinsmobility 	minSpeed 	2.4151298546232
scalar MyScenario.node[384].veinsmobility 	maxSpeed 	13.889227384585
scalar MyScenario.node[384].veinsmobility 	totalDistance 	468.35987930383
scalar MyScenario.node[384].veinsmobility 	totalCO2Emission 	105.72931835303
scalar MyScenario.node[341].appl 	generatedWSMs 	0
scalar MyScenario.node[341].appl 	receivedWSMs 	0
scalar MyScenario.node[341].appl 	generatedBSMs 	0
scalar MyScenario.node[341].appl 	receivedBSMs 	0
scalar MyScenario.node[341].appl 	generatedWSAs 	0
scalar MyScenario.node[341].appl 	receivedWSAs 	0
scalar MyScenario.node[341].nic.phy80211p 	busyTime 	0
scalar MyScenario.node[341].nic.mac1609_4 	ReceivedUnicastPackets 	0
scalar MyScenario.node[341].nic.mac1609_4 	ReceivedBroadcasts 	0
scalar MyScenario.node[341].nic.mac1609_4 	SentPackets 	0
scalar MyScenario.node[341].nic.mac1609_4 	SNIRLostPackets 	0
scalar MyScenario.node[341].nic.mac1609_4 	RXTXLostPackets 	0
scalar MyScenario.node[341].nic.mac1609_4 	TotalLostPackets 	0
scalar MyScenario.node[341].nic.mac1609_4 	DroppedPacketsInMac 	0
scalar MyScenario.node[341].nic.mac1609_4 	TooLittleTime 	0
scalar MyScenario.node[341].nic.mac1609_4 	TimesIntoBackoff 	0
scalar MyScenario.node[341].nic.mac1609_4 	SlotsBackoff 	0
scalar MyScenario.node[341].nic.mac1609_4 	NumInternalContention 	0
scalar MyScenario.node[341].nic.mac1609_4 	totalBusyTime 	0
scalar MyScenario.node[341].veinsmobility 	startTime 	4
scalar MyScenario.node[341].veinsmobility 	totalTime 	42
scalar MyScenario.node[341].veinsmobility 	stopTime 	47
scalar MyScenario.node[341].veinsmobility 	minSpeed 	2.4948408233002
scalar MyScenario.node[341].veinsmobility 	maxSpeed 	13.778152772086
scalar MyScenario.node[341].veinsmobility 	totalDistance 	476.76048311165
scalar MyScenario.node[341].veinsmobility 	totalCO2Emission 	122.08143154911
scalar MyScenario.node[394].appl 	generatedWSMs 	0
scalar MyScenario.node[394].appl 	receivedWSMs 	0
scalar MyScenario.node[394].appl 	generatedBSMs 	0
scalar MyScenario.node[394].appl 	receivedBSMs 	0
scalar MyScenario.node[394].appl 	generatedWSAs 	0
scalar MyScenario.node[394].appl 	receivedWSAs 	0
scalar MyScenario.node[394].nic.phy80211p 	busyTime 	1.8810810810811e-05
scalar MyScenario.node[394].nic.mac1609_4 	ReceivedUnicastPackets 	0
scalar MyScenario.node[394].nic.mac1609_4 	ReceivedBroadcasts 	0
scalar MyScenario.node[394].nic.mac1609_4 	SentPackets 	0
scalar MyScenario.node[394].nic.mac1609_4 	SNIRLostPackets 	3
scalar MyScenario.node[394].nic.mac1609_4 	RXTXLostPackets 	0
scalar MyScenario.node[394].nic.mac1609_4 	TotalLostPackets 	3
scalar MyScenario.node[394].nic.mac1609_4 	DroppedPacketsInMac 	0
scalar MyScenario.node[394].nic.mac1609_4 	TooLittleTime 	0
scalar MyScenario.node[394].nic.mac1609_4 	TimesIntoBackoff 	0
scalar MyScenario.node[394].nic.mac1609_4 	SlotsBackoff 	0
scalar MyScenario.node[394].nic.mac1609_4 	NumInternalContention 	0
scalar MyScenario.node[394].nic.mac1609_4 	totalBusyTime 	0.000232
scalar MyScenario.node[394].veinsmobility 	startTime 	11
scalar MyScenario.node[394].veinsmobility 	totalTime 	36
scalar MyScenario.node[394].veinsmobility 	stopTime 	48
scalar MyScenario.node[394].veinsmobility 	minSpeed 	0.00031438462346661
scalar MyScenario.node[394].veinsmobility 	maxSpeed 	13.780514011998
scalar MyScenario.node[394].veinsmobility 	totalDistance 	276.7549365022
scalar MyScenario.node[394].veinsmobility 	totalCO2Emission 	112.31676756281
scalar MyScenario.node[172].appl 	generatedWSMs 	1
scalar MyScenario.node[172].appl 	receivedWSMs 	2
scalar MyScenario.node[172].appl 	generatedBSMs 	0
scalar MyScenario.node[172].appl 	receivedBSMs 	0
scalar MyScenario.node[172].appl 	generatedWSAs 	0
scalar MyScenario.node[172].appl 	receivedWSAs 	0
scalar MyScenario.node[172].nic.phy80211p 	busyTime 	0.00019251063829787
scalar MyScenario.node[172].nic.mac1609_4 	ReceivedUnicastPackets 	0
scalar MyScenario.node[172].nic.mac1609_4 	ReceivedBroadcasts 	2
scalar MyScenario.node[172].nic.mac1609_4 	SentPackets 	1
scalar MyScenario.node[172].nic.mac1609_4 	SNIRLostPackets 	37
scalar MyScenario.node[172].nic.mac1609_4 	RXTXLostPackets 	22
scalar MyScenario.node[172].nic.mac1609_4 	TotalLostPackets 	59
scalar MyScenario.node[172].nic.mac1609_4 	DroppedPacketsInMac 	0
scalar MyScenario.node[172].nic.mac1609_4 	TooLittleTime 	0
scalar MyScenario.node[172].nic.mac1609_4 	TimesIntoBackoff 	1
scalar MyScenario.node[172].nic.mac1609_4 	SlotsBackoff 	1
scalar MyScenario.node[172].nic.mac1609_4 	NumInternalContention 	0
scalar MyScenario.node[172].nic.mac1609_4 	totalBusyTime 	0.002321415233
scalar MyScenario.node[172].veinsmobility 	startTime 	1
scalar MyScenario.node[172].veinsmobility 	totalTime 	46
scalar MyScenario.node[172].veinsmobility 	stopTime 	48
scalar MyScenario.node[172].veinsmobility 	minSpeed 	1.3414261738537
scalar MyScenario.node[172].veinsmobility 	maxSpeed 	13.877522109984
scalar MyScenario.node[172].veinsmobility 	totalDistance 	466.15897379685
scalar MyScenario.node[172].veinsmobility 	totalCO2Emission 	164.08552814428
scalar MyScenario.node[396].appl 	generatedWSMs 	1
scalar MyScenario.node[396].appl 	receivedWSMs 	1
scalar MyScenario.node[396].appl 	generatedBSMs 	0
scalar MyScenario.node[396].appl 	receivedBSMs 	0
scalar MyScenario.node[396].appl 	generatedWSAs 	0
scalar MyScenario.node[396].appl 	receivedWSAs 	0
scalar MyScenario.node[396].nic.phy80211p 	busyTime 	0.00021266666666667
scalar MyScenario.node[396].nic.mac1609_4 	ReceivedUnicastPackets 	0
scalar MyScenario.node[396].nic.mac1609_4 	ReceivedBroadcasts 	1
scalar MyScenario.node[396].nic.mac1609_4 	SentPackets 	1
scalar MyScenario.node[396].nic.mac1609_4 	SNIRLostPackets 	32
scalar MyScenario.node[396].nic.mac1609_4 	RXTXLostPackets 	25
scalar MyScenario.node[396].nic.mac1609_4 	TotalLostPackets 	57
scalar MyScenario.node[396].nic.mac1609_4 	DroppedPacketsInMac 	0
scalar MyScenario.node[396].nic.mac1609_4 	TooLittleTime 	0
scalar MyScenario.node[396].nic.mac1609_4 	TimesIntoBackoff 	1
scalar MyScenario.node[396].nic.mac1609_4 	SlotsBackoff 	0
scalar MyScenario.node[396].nic.mac1609_4 	NumInternalContention 	0
scalar MyScenario.node[396].nic.mac1609_4 	totalBusyTime 	0.001857329871
scalar MyScenario.node[396].veinsmobility 	startTime 	12
scalar MyScenario.node[396].veinsmobility 	totalTime 	35
scalar MyScenario.node[396].veinsmobility 	stopTime 	48
scalar MyScenario.node[396].veinsmobility 	minSpeed 	0.00053610410149794
scalar MyScenario.node[396].veinsmobility 	maxSpeed 	13.632599070645
scalar MyScenario.node[396].veinsmobility 	totalDistance 	269.32906184391
scalar MyScenario.node[396].veinsmobility 	totalCO2Emission 	102.8359657367
scalar MyScenario.node[120].appl 	generatedWSMs 	0
scalar MyScenario.node[120].appl 	receivedWSMs 	0
scalar MyScenario.node[120].appl 	generatedBSMs 	0
scalar MyScenario.node[120].appl 	receivedBSMs 	0
scalar MyScenario.node[120].appl 	generatedWSAs 	0
scalar MyScenario.node[120].appl 	receivedWSAs 	0
scalar MyScenario.node[120].nic.phy80211p 	busyTime 	4.936170212766e-05
scalar MyScenario.node[120].nic.mac1609_4 	ReceivedUnicastPackets 	0
scalar MyScenario.node[120].nic.mac1609_4 	ReceivedBroadcasts 	0
scalar MyScenario.node[120].nic.mac1609_4 	SentPackets 	0
scalar MyScenario.node[120].nic.mac1609_4 	SNIRLostPackets 	10
scalar MyScenario.node[120].nic.mac1609_4 	RXTXLostPackets 	0
scalar MyScenario.node[120].nic.mac1609_4 	TotalLostPackets 	10
scalar MyScenario.node[120].nic.mac1609_4 	DroppedPacketsInMac 	0
scalar MyScenario.node[120].nic.mac1609_4 	TooLittleTime 	0
scalar MyScenario.node[120].nic.mac1609_4 	TimesIntoBackoff 	0
scalar MyScenario.node[120].nic.mac1609_4 	SlotsBackoff 	0
scalar MyScenario.node[120].nic.mac1609_4 	NumInternalContention 	0
scalar MyScenario.node[120].nic.mac1609_4 	totalBusyTime 	0.000232
scalar MyScenario.node[120].veinsmobility 	startTime 	1
scalar MyScenario.node[120].veinsmobility 	totalTime 	46
scalar MyScenario.node[120].veinsmobility 	stopTime 	48
scalar MyScenario.node[120].veinsmobility 	minSpeed 	1.4679103049217
scalar MyScenario.node[120].veinsmobility 	maxSpeed 	13.859396229056
scalar MyScenario.node[120].veinsmobility 	totalDistance 	461.98831986393
scalar MyScenario.node[120].veinsmobility 	totalCO2Emission 	167.58510172406
scalar MyScenario.node[161].appl 	generatedWSMs 	0
scalar MyScenario.node[161].appl 	receivedWSMs 	0
scalar MyScenario.node[161].appl 	generatedBSMs 	0
scalar MyScenario.node[161].appl 	receivedBSMs 	0
scalar MyScenario.node[161].appl 	generatedWSAs 	0
scalar MyScenario.node[161].appl 	receivedWSAs 	0
scalar MyScenario.node[161].nic.phy80211p 	busyTime 	0
scalar MyScenario.node[161].nic.mac1609_4 	ReceivedUnicastPackets 	0
scalar MyScenario.node[161].nic.mac1609_4 	ReceivedBroadcasts 	0
scalar MyScenario.node[161].nic.mac1609_4 	SentPackets 	0
scalar MyScenario.node[161].nic.mac1609_4 	SNIRLostPackets 	0
scalar MyScenario.node[161].nic.mac1609_4 	RXTXLostPackets 	0
scalar MyScenario.node[161].nic.mac1609_4 	TotalLostPackets 	0
scalar MyScenario.node[161].nic.mac1609_4 	DroppedPacketsInMac 	0
scalar MyScenario.node[161].nic.mac1609_4 	TooLittleTime 	0
scalar MyScenario.node[161].nic.mac1609_4 	TimesIntoBackoff 	0
scalar MyScenario.node[161].nic.mac1609_4 	SlotsBackoff 	0
scalar MyScenario.node[161].nic.mac1609_4 	NumInternalContention 	0
scalar MyScenario.node[161].nic.mac1609_4 	totalBusyTime 	0
scalar MyScenario.node[161].veinsmobility 	startTime 	1
scalar MyScenario.node[161].veinsmobility 	totalTime 	47
scalar MyScenario.node[161].veinsmobility 	stopTime 	49
scalar MyScenario.node[161].veinsmobility 	minSpeed 	0.92162870202455
scalar MyScenario.node[161].veinsmobility 	maxSpeed 	13.896948913694
scalar MyScenario.node[161].veinsmobility 	totalDistance 	459.36352387451
scalar MyScenario.node[161].veinsmobility 	totalCO2Emission 	132.62073083235
scalar MyScenario.node[398].appl 	generatedWSMs 	1
scalar MyScenario.node[398].appl 	receivedWSMs 	1
scalar MyScenario.node[398].appl 	generatedBSMs 	0
scalar MyScenario.node[398].appl 	receivedBSMs 	0
scalar MyScenario.node[398].appl 	generatedWSAs 	0
scalar MyScenario.node[398].appl 	receivedWSAs 	0
scalar MyScenario.node[398].nic.phy80211p 	busyTime 	6.8972972972973e-05
scalar MyScenario.node[398].nic.mac1609_4 	ReceivedUnicastPackets 	0
scalar MyScenario.node[398].nic.mac1609_4 	ReceivedBroadcasts 	1
scalar MyScenario.node[398].nic.mac1609_4 	SentPackets 	1
scalar MyScenario.node[398].nic.mac1609_4 	SNIRLostPackets 	10
scalar MyScenario.node[398].nic.mac1609_4 	RXTXLostPackets 	20
scalar MyScenario.node[398].nic.mac1609_4 	TotalLostPackets 	30
scalar MyScenario.node[398].nic.mac1609_4 	DroppedPacketsInMac 	0
scalar MyScenario.node[398].nic.mac1609_4 	TooLittleTime 	0
scalar MyScenario.node[398].nic.mac1609_4 	TimesIntoBackoff 	1
scalar MyScenario.node[398].nic.mac1609_4 	SlotsBackoff 	2
scalar MyScenario.node[398].nic.mac1609_4 	NumInternalContention 	0
scalar MyScenario.node[398].nic.mac1609_4 	totalBusyTime 	0.001393180232
scalar MyScenario.node[398].veinsmobility 	startTime 	12
scalar MyScenario.node[398].veinsmobility 	totalTime 	36
scalar MyScenario.node[398].veinsmobility 	stopTime 	49
scalar MyScenario.node[398].veinsmobility 	minSpeed 	12.640888151061
scalar MyScenario.node[398].veinsmobility 	maxSpeed 	13.88442052973
scalar MyScenario.node[398].veinsmobility 	totalDistance 	470.71507042546
scalar MyScenario.node[398].veinsmobility 	totalCO2Emission 	80.748779496775
scalar MyScenario.node[105].appl 	generatedWSMs 	1
scalar MyScenario.node[105].appl 	receivedWSMs 	3
scalar MyScenario.node[105].appl 	generatedBSMs 	0
scalar MyScenario.node[105].appl 	receivedBSMs 	0
scalar MyScenario.node[105].appl 	generatedWSAs 	0
scalar MyScenario.node[105].appl 	receivedWSAs 	0
scalar MyScenario.node[105].nic.phy80211p 	busyTime 	0.000261
scalar MyScenario.node[105].nic.mac1609_4 	ReceivedUnicastPackets 	0
[...]
scalar MyScenario.node[324].nic.mac1609_4 	TimesIntoBackoff 	1
scalar MyScenario.node[324].nic.mac1609_4 	SlotsBackoff 	2
scalar MyScenario.node[324].nic.mac1609_4 	NumInternalContention 	0
scalar MyScenario.node[324].nic.mac1609_4 	totalBusyTime 	0.010441089089
scalar MyScenario.node[324].veinsmobility 	startTime 	4
scalar MyScenario.node[324].veinsmobility 	totalTime 	174
scalar MyScenario.node[324].veinsmobility 	stopTime 	179
scalar MyScenario.node[324].veinsmobility 	minSpeed 	8.4729254721057e-12
scalar MyScenario.node[324].veinsmobility 	maxSpeed 	13.84832877866
scalar MyScenario.node[324].veinsmobility 	totalDistance 	1369.538223071
scalar MyScenario.node[324].veinsmobility 	totalCO2Emission 	485.53903043789
scalar MyScenario.node[357].appl 	generatedWSMs 	1
scalar MyScenario.node[357].appl 	receivedWSMs 	7
scalar MyScenario.node[357].appl 	generatedBSMs 	0
scalar MyScenario.node[357].appl 	receivedBSMs 	0
scalar MyScenario.node[357].appl 	generatedWSAs 	0
scalar MyScenario.node[357].appl 	receivedWSAs 	0
scalar MyScenario.node[357].nic.phy80211p 	busyTime 	3.4867052023121e-05
scalar MyScenario.node[357].nic.mac1609_4 	ReceivedUnicastPackets 	0
scalar MyScenario.node[357].nic.mac1609_4 	ReceivedBroadcasts 	7
scalar MyScenario.node[357].nic.mac1609_4 	SentPackets 	1
scalar MyScenario.node[357].nic.mac1609_4 	SNIRLostPackets 	19
scalar MyScenario.node[357].nic.mac1609_4 	RXTXLostPackets 	3
scalar MyScenario.node[357].nic.mac1609_4 	TotalLostPackets 	22
scalar MyScenario.node[357].nic.mac1609_4 	DroppedPacketsInMac 	0
scalar MyScenario.node[357].nic.mac1609_4 	TooLittleTime 	0
scalar MyScenario.node[357].nic.mac1609_4 	TimesIntoBackoff 	1
scalar MyScenario.node[357].nic.mac1609_4 	SlotsBackoff 	0
scalar MyScenario.node[357].nic.mac1609_4 	NumInternalContention 	0
scalar MyScenario.node[357].nic.mac1609_4 	totalBusyTime 	0.002553010407
scalar MyScenario.node[357].veinsmobility 	startTime 	7
scalar MyScenario.node[357].veinsmobility 	totalTime 	172
scalar MyScenario.node[357].veinsmobility 	stopTime 	180
scalar MyScenario.node[357].veinsmobility 	minSpeed 	7.3007697166457e-12
scalar MyScenario.node[357].veinsmobility 	maxSpeed 	13.893810256058
scalar MyScenario.node[357].veinsmobility 	totalDistance 	1178.7735828858
scalar MyScenario.node[357].veinsmobility 	totalCO2Emission 	401.32380430594
scalar MyScenario.node[366].appl 	generatedWSMs 	1
scalar MyScenario.node[366].appl 	receivedWSMs 	1
scalar MyScenario.node[366].appl 	generatedBSMs 	0
scalar MyScenario.node[366].appl 	receivedBSMs 	0
scalar MyScenario.node[366].appl 	generatedWSAs 	0
scalar MyScenario.node[366].appl 	receivedWSAs 	0
scalar MyScenario.node[366].nic.phy80211p 	busyTime 	2.883615819209e-05
scalar MyScenario.node[366].nic.mac1609_4 	ReceivedUnicastPackets 	0
scalar MyScenario.node[366].nic.mac1609_4 	ReceivedBroadcasts 	1
scalar MyScenario.node[366].nic.mac1609_4 	SentPackets 	1
scalar MyScenario.node[366].nic.mac1609_4 	SNIRLostPackets 	21
scalar MyScenario.node[366].nic.mac1609_4 	RXTXLostPackets 	1
scalar MyScenario.node[366].nic.mac1609_4 	TotalLostPackets 	22
scalar MyScenario.node[366].nic.mac1609_4 	DroppedPacketsInMac 	0
scalar MyScenario.node[366].nic.mac1609_4 	TooLittleTime 	0
scalar MyScenario.node[366].nic.mac1609_4 	TimesIntoBackoff 	1
scalar MyScenario.node[366].nic.mac1609_4 	SlotsBackoff 	2
scalar MyScenario.node[366].nic.mac1609_4 	NumInternalContention 	0
scalar MyScenario.node[366].nic.mac1609_4 	totalBusyTime 	0.001161057168
scalar MyScenario.node[366].veinsmobility 	startTime 	7
scalar MyScenario.node[366].veinsmobility 	totalTime 	176
scalar MyScenario.node[366].veinsmobility 	stopTime 	184
scalar MyScenario.node[366].veinsmobility 	minSpeed 	5.6689433202057e-09
scalar MyScenario.node[366].veinsmobility 	maxSpeed 	13.869478779542
scalar MyScenario.node[366].veinsmobility 	totalDistance 	1363.0738346571
scalar MyScenario.node[366].veinsmobility 	totalCO2Emission 	505.90273917169
scalar MyScenario.node[390].appl 	generatedWSMs 	1
scalar MyScenario.node[390].appl 	receivedWSMs 	9
scalar MyScenario.node[390].appl 	generatedBSMs 	0
scalar MyScenario.node[390].appl 	receivedBSMs 	0
scalar MyScenario.node[390].appl 	generatedWSAs 	0
scalar MyScenario.node[390].appl 	receivedWSAs 	0
scalar MyScenario.node[390].nic.phy80211p 	busyTime 	6.1333333333333e-05
scalar MyScenario.node[390].nic.mac1609_4 	ReceivedUnicastPackets 	0
scalar MyScenario.node[390].nic.mac1609_4 	ReceivedBroadcasts 	9
scalar MyScenario.node[390].nic.mac1609_4 	SentPackets 	1
scalar MyScenario.node[390].nic.mac1609_4 	SNIRLostPackets 	37
scalar MyScenario.node[390].nic.mac1609_4 	RXTXLostPackets 	3
scalar MyScenario.node[390].nic.mac1609_4 	TotalLostPackets 	40
scalar MyScenario.node[390].nic.mac1609_4 	DroppedPacketsInMac 	0
scalar MyScenario.node[390].nic.mac1609_4 	TooLittleTime 	0
scalar MyScenario.node[390].nic.mac1609_4 	TimesIntoBackoff 	1
scalar MyScenario.node[390].nic.mac1609_4 	SlotsBackoff 	2
scalar MyScenario.node[390].nic.mac1609_4 	NumInternalContention 	0
scalar MyScenario.node[390].nic.mac1609_4 	totalBusyTime 	0.003481119978
scalar MyScenario.node[390].veinsmobility 	startTime 	10
scalar MyScenario.node[390].veinsmobility 	totalTime 	173
scalar MyScenario.node[390].veinsmobility 	stopTime 	184
scalar MyScenario.node[390].veinsmobility 	minSpeed 	7.1670293981074e-10
scalar MyScenario.node[390].veinsmobility 	maxSpeed 	13.895001316653
scalar MyScenario.node[390].veinsmobility 	totalDistance 	968.91476982829
scalar MyScenario.node[390].veinsmobility 	totalCO2Emission 	372.50766999233
scalar MyScenario.node[287].appl 	generatedWSMs 	1
scalar MyScenario.node[287].appl 	receivedWSMs 	5
scalar MyScenario.node[287].appl 	generatedBSMs 	0
scalar MyScenario.node[287].appl 	receivedBSMs 	0
scalar MyScenario.node[287].appl 	generatedWSAs 	0
scalar MyScenario.node[287].appl 	receivedWSAs 	0
scalar MyScenario.node[287].nic.phy80211p 	busyTime 	1.7944751381215e-05
scalar MyScenario.node[287].nic.mac1609_4 	ReceivedUnicastPackets 	0
scalar MyScenario.node[287].nic.mac1609_4 	ReceivedBroadcasts 	5
scalar MyScenario.node[287].nic.mac1609_4 	SentPackets 	1
scalar MyScenario.node[287].nic.mac1609_4 	SNIRLostPackets 	9
scalar MyScenario.node[287].nic.mac1609_4 	RXTXLostPackets 	13
scalar MyScenario.node[287].nic.mac1609_4 	TotalLostPackets 	22
scalar MyScenario.node[287].nic.mac1609_4 	DroppedPacketsInMac 	0
scalar MyScenario.node[287].nic.mac1609_4 	TooLittleTime 	0
scalar MyScenario.node[287].nic.mac1609_4 	TimesIntoBackoff 	1
scalar MyScenario.node[287].nic.mac1609_4 	SlotsBackoff 	0
scalar MyScenario.node[287].nic.mac1609_4 	NumInternalContention 	0
scalar MyScenario.node[287].nic.mac1609_4 	totalBusyTime 	0.001857062278
scalar MyScenario.node[287].veinsmobility 	startTime 	4
scalar MyScenario.node[287].veinsmobility 	totalTime 	180
scalar MyScenario.node[287].veinsmobility 	stopTime 	185
scalar MyScenario.node[287].veinsmobility 	minSpeed 	9.7784694248012e-15
scalar MyScenario.node[287].veinsmobility 	maxSpeed 	13.885898022912
scalar MyScenario.node[287].veinsmobility 	totalDistance 	1272.4270974442
scalar MyScenario.node[287].veinsmobility 	totalCO2Emission 	480.38245432275
scalar MyScenario.node[167].appl 	generatedWSMs 	1
scalar MyScenario.node[167].appl 	receivedWSMs 	11
scalar MyScenario.node[167].appl 	generatedBSMs 	0
scalar MyScenario.node[167].appl 	receivedBSMs 	0
scalar MyScenario.node[167].appl 	generatedWSAs 	0
scalar MyScenario.node[167].appl 	receivedWSAs 	0
scalar MyScenario.node[167].nic.phy80211p 	busyTime 	4.2637837837838e-05
scalar MyScenario.node[167].nic.mac1609_4 	ReceivedUnicastPackets 	0
scalar MyScenario.node[167].nic.mac1609_4 	ReceivedBroadcasts 	11
scalar MyScenario.node[167].nic.mac1609_4 	SentPackets 	1
scalar MyScenario.node[167].nic.mac1609_4 	SNIRLostPackets 	23
scalar MyScenario.node[167].nic.mac1609_4 	RXTXLostPackets 	27
scalar MyScenario.node[167].nic.mac1609_4 	TotalLostPackets 	50
scalar MyScenario.node[167].nic.mac1609_4 	DroppedPacketsInMac 	0
scalar MyScenario.node[167].nic.mac1609_4 	TooLittleTime 	0
scalar MyScenario.node[167].nic.mac1609_4 	TimesIntoBackoff 	1
scalar MyScenario.node[167].nic.mac1609_4 	SlotsBackoff 	2
scalar MyScenario.node[167].nic.mac1609_4 	NumInternalContention 	0
scalar MyScenario.node[167].nic.mac1609_4 	totalBusyTime 	0.00440912832
scalar MyScenario.node[167].veinsmobility 	startTime 	1
scalar MyScenario.node[167].veinsmobility 	totalTime 	184
scalar MyScenario.node[167].veinsmobility 	stopTime 	186
scalar MyScenario.node[167].veinsmobility 	minSpeed 	4.1022598866594e-15
scalar MyScenario.node[167].veinsmobility 	maxSpeed 	13.839520444907
scalar MyScenario.node[167].veinsmobility 	totalDistance 	1062.3034122804
scalar MyScenario.node[167].veinsmobility 	totalCO2Emission 	446.21453109376
scalar MyScenario.node[407].appl 	generatedWSMs 	1
scalar MyScenario.node[407].appl 	receivedWSMs 	13
scalar MyScenario.node[407].appl 	generatedBSMs 	0
scalar MyScenario.node[407].appl 	receivedBSMs 	0
scalar MyScenario.node[407].appl 	generatedWSAs 	0
scalar MyScenario.node[407].appl 	receivedWSAs 	0
scalar MyScenario.node[407].nic.phy80211p 	busyTime 	6.0697674418605e-05
scalar MyScenario.node[407].nic.mac1609_4 	ReceivedUnicastPackets 	0
scalar MyScenario.node[407].nic.mac1609_4 	ReceivedBroadcasts 	13
scalar MyScenario.node[407].nic.mac1609_4 	SentPackets 	1
scalar MyScenario.node[407].nic.mac1609_4 	SNIRLostPackets 	32
scalar MyScenario.node[407].nic.mac1609_4 	RXTXLostPackets 	27
scalar MyScenario.node[407].nic.mac1609_4 	TotalLostPackets 	59
scalar MyScenario.node[407].nic.mac1609_4 	DroppedPacketsInMac 	0
scalar MyScenario.node[407].nic.mac1609_4 	TooLittleTime 	0
scalar MyScenario.node[407].nic.mac1609_4 	TimesIntoBackoff 	1
scalar MyScenario.node[407].nic.mac1609_4 	SlotsBackoff 	0
scalar MyScenario.node[407].nic.mac1609_4 	NumInternalContention 	0
scalar MyScenario.node[407].nic.mac1609_4 	totalBusyTime 	0.00487317304
scalar MyScenario.node[407].veinsmobility 	startTime 	17
scalar MyScenario.node[407].veinsmobility 	totalTime 	171
scalar MyScenario.node[407].veinsmobility 	stopTime 	189
scalar MyScenario.node[407].veinsmobility 	minSpeed 	8.9896626113606e-13
scalar MyScenario.node[407].veinsmobility 	maxSpeed 	13.88975243906
scalar MyScenario.node[407].veinsmobility 	totalDistance 	1078.1307903533
scalar MyScenario.node[407].veinsmobility 	totalCO2Emission 	396.90562368192
scalar MyScenario.node[280].appl 	generatedWSMs 	1
scalar MyScenario.node[280].appl 	receivedWSMs 	11
scalar MyScenario.node[280].appl 	generatedBSMs 	0
scalar MyScenario.node[280].appl 	receivedBSMs 	0
scalar MyScenario.node[280].appl 	generatedWSAs 	0
scalar MyScenario.node[280].appl 	receivedWSAs 	0
scalar MyScenario.node[280].nic.phy80211p 	busyTime 	3.6882051282051e-05
scalar MyScenario.node[280].nic.mac1609_4 	ReceivedUnicastPackets 	0
scalar MyScenario.node[280].nic.mac1609_4 	ReceivedBroadcasts 	11
scalar MyScenario.node[280].nic.mac1609_4 	SentPackets 	1
scalar MyScenario.node[280].nic.mac1609_4 	SNIRLostPackets 	20
scalar MyScenario.node[280].nic.mac1609_4 	RXTXLostPackets 	26
scalar MyScenario.node[280].nic.mac1609_4 	TotalLostPackets 	46
scalar MyScenario.node[280].nic.mac1609_4 	DroppedPacketsInMac 	0
scalar MyScenario.node[280].nic.mac1609_4 	TooLittleTime 	0
scalar MyScenario.node[280].nic.mac1609_4 	TimesIntoBackoff 	1
scalar MyScenario.node[280].nic.mac1609_4 	SlotsBackoff 	2
scalar MyScenario.node[280].nic.mac1609_4 	NumInternalContention 	0
scalar MyScenario.node[280].nic.mac1609_4 	totalBusyTime 	0.004177055037
scalar MyScenario.node[280].veinsmobility 	startTime 	4
scalar MyScenario.node[280].veinsmobility 	totalTime 	194
scalar MyScenario.node[280].veinsmobility 	stopTime 	199
scalar MyScenario.node[280].veinsmobility 	minSpeed 	1.3223807262503e-14
scalar MyScenario.node[280].veinsmobility 	maxSpeed 	13.85026444376
scalar MyScenario.node[280].veinsmobility 	totalDistance 	1064.1073307156
scalar MyScenario.node[280].veinsmobility 	totalCO2Emission 	467.43607664964
scalar MyScenario.node[205].appl 	generatedWSMs 	1
scalar MyScenario.node[205].appl 	receivedWSMs 	9
scalar MyScenario.node[205].appl 	generatedBSMs 	0
scalar MyScenario.node[205].appl 	receivedBSMs 	0
scalar MyScenario.node[205].appl 	generatedWSAs 	0
scalar MyScenario.node[205].appl 	receivedWSAs 	0
scalar MyScenario.node[205].nic.phy80211p 	busyTime 	6.38e-05
scalar MyScenario.node[205].nic.mac1609_4 	ReceivedUnicastPackets 	0
scalar MyScenario.node[205].nic.mac1609_4 	ReceivedBroadcasts 	9
scalar MyScenario.node[205].nic.mac1609_4 	SentPackets 	1
scalar MyScenario.node[205].nic.mac1609_4 	SNIRLostPackets 	46
scalar MyScenario.node[205].nic.mac1609_4 	RXTXLostPackets 	3
scalar MyScenario.node[205].nic.mac1609_4 	TotalLostPackets 	49
scalar MyScenario.node[205].nic.mac1609_4 	DroppedPacketsInMac 	0
scalar MyScenario.node[205].nic.mac1609_4 	TooLittleTime 	0
scalar MyScenario.node[205].nic.mac1609_4 	TimesIntoBackoff 	1
scalar MyScenario.node[205].nic.mac1609_4 	SlotsBackoff 	3
scalar MyScenario.node[205].nic.mac1609_4 	NumInternalContention 	0
scalar MyScenario.node[205].nic.mac1609_4 	totalBusyTime 	0.00348117694
scalar MyScenario.node[205].veinsmobility 	startTime 	1
scalar MyScenario.node[205].veinsmobility 	totalTime 	199
scalar MyScenario.node[205].veinsmobility 	stopTime 	201
scalar MyScenario.node[205].veinsmobility 	minSpeed 	7.8938140516827e-13
scalar MyScenario.node[205].veinsmobility 	maxSpeed 	13.894699418638
scalar MyScenario.node[205].veinsmobility 	totalDistance 	1148.8727707884
scalar MyScenario.node[205].veinsmobility 	totalCO2Emission 	484.26808541555
scalar MyScenario.node[249].appl 	generatedWSMs 	1
scalar MyScenario.node[249].appl 	receivedWSMs 	9
scalar MyScenario.node[249].appl 	generatedBSMs 	0
scalar MyScenario.node[249].appl 	receivedBSMs 	0
scalar MyScenario.node[249].appl 	generatedWSAs 	0
scalar MyScenario.node[249].appl 	receivedWSAs 	0
scalar MyScenario.node[249].nic.phy80211p 	busyTime 	6.3482587064677e-05
scalar MyScenario.node[249].nic.mac1609_4 	ReceivedUnicastPackets 	0
scalar MyScenario.node[249].nic.mac1609_4 	ReceivedBroadcasts 	9
scalar MyScenario.node[249].nic.mac1609_4 	SentPackets 	1
scalar MyScenario.node[249].nic.mac1609_4 	SNIRLostPackets 	46
scalar MyScenario.node[249].nic.mac1609_4 	RXTXLostPackets 	3
scalar MyScenario.node[249].nic.mac1609_4 	TotalLostPackets 	49
scalar MyScenario.node[249].nic.mac1609_4 	DroppedPacketsInMac 	0
scalar MyScenario.node[249].nic.mac1609_4 	TooLittleTime 	0
scalar MyScenario.node[249].nic.mac1609_4 	TimesIntoBackoff 	1
scalar MyScenario.node[249].nic.mac1609_4 	SlotsBackoff 	3
scalar MyScenario.node[249].nic.mac1609_4 	NumInternalContention 	0
scalar MyScenario.node[249].nic.mac1609_4 	totalBusyTime 	0.003481138417
scalar MyScenario.node[249].veinsmobility 	startTime 	4
scalar MyScenario.node[249].veinsmobility 	totalTime 	200
scalar MyScenario.node[249].veinsmobility 	stopTime 	205
scalar MyScenario.node[249].veinsmobility 	minSpeed 	8.1575918693007e-11
scalar MyScenario.node[249].veinsmobility 	maxSpeed 	13.878168753069
scalar MyScenario.node[249].veinsmobility 	totalDistance 	1160.0456512999
scalar MyScenario.node[249].veinsmobility 	totalCO2Emission 	487.80019067722
scalar MyScenario.node[60].appl 	generatedWSMs 	1
scalar MyScenario.node[60].appl 	receivedWSMs 	8
scalar MyScenario.node[60].appl 	generatedBSMs 	0
scalar MyScenario.node[60].appl 	receivedBSMs 	0
scalar MyScenario.node[60].appl 	generatedWSAs 	0
scalar MyScenario.node[60].appl 	receivedWSAs 	0
scalar MyScenario.node[60].nic.phy80211p 	busyTime 	3.4411483253588e-05
scalar MyScenario.node[60].nic.mac1609_4 	ReceivedUnicastPackets 	0
scalar MyScenario.node[60].nic.mac1609_4 	ReceivedBroadcasts 	8
scalar MyScenario.node[60].nic.mac1609_4 	SentPackets 	1
scalar MyScenario.node[60].nic.mac1609_4 	SNIRLostPackets 	23
scalar MyScenario.node[60].nic.mac1609_4 	RXTXLostPackets 	3
scalar MyScenario.node[60].nic.mac1609_4 	TotalLostPackets 	26
scalar MyScenario.node[60].nic.mac1609_4 	DroppedPacketsInMac 	0
scalar MyScenario.node[60].nic.mac1609_4 	TooLittleTime 	0
scalar MyScenario.node[60].nic.mac1609_4 	TimesIntoBackoff 	1
scalar MyScenario.node[60].nic.mac1609_4 	SlotsBackoff 	2
scalar MyScenario.node[60].nic.mac1609_4 	NumInternalContention 	0
scalar MyScenario.node[60].nic.mac1609_4 	totalBusyTime 	0.002785054947
scalar MyScenario.node[60].veinsmobility 	startTime 	1
scalar MyScenario.node[60].veinsmobility 	totalTime 	208
scalar MyScenario.node[60].veinsmobility 	stopTime 	210
scalar MyScenario.node[60].veinsmobility 	minSpeed 	4.3638316970144e-07
scalar MyScenario.node[60].veinsmobility 	maxSpeed 	13.786404115916
scalar MyScenario.node[60].veinsmobility 	totalDistance 	1259.7287136229
scalar MyScenario.node[60].veinsmobility 	totalCO2Emission 	511.65947668426
scalar MyScenario.node[79].appl 	generatedWSMs 	1
scalar MyScenario.node[79].appl 	receivedWSMs 	9
scalar MyScenario.node[79].appl 	generatedBSMs 	0
scalar MyScenario.node[79].appl 	receivedBSMs 	0
scalar MyScenario.node[79].appl 	generatedWSAs 	0
scalar MyScenario.node[79].appl 	receivedWSAs 	0
scalar MyScenario.node[79].nic.phy80211p 	busyTime 	3.9771428571429e-05
scalar MyScenario.node[79].nic.mac1609_4 	ReceivedUnicastPackets 	0
scalar MyScenario.node[79].nic.mac1609_4 	ReceivedBroadcasts 	9
scalar MyScenario.node[79].nic.mac1609_4 	SentPackets 	1
scalar MyScenario.node[79].nic.mac1609_4 	SNIRLostPackets 	27
scalar MyScenario.node[79].nic.mac1609_4 	RXTXLostPackets 	3
scalar MyScenario.node[79].nic.mac1609_4 	TotalLostPackets 	30
scalar MyScenario.node[79].nic.mac1609_4 	DroppedPacketsInMac 	0
scalar MyScenario.node[79].nic.mac1609_4 	TooLittleTime 	0
scalar MyScenario.node[79].nic.mac1609_4 	TimesIntoBackoff 	1
scalar MyScenario.node[79].nic.mac1609_4 	SlotsBackoff 	3
scalar MyScenario.node[79].nic.mac1609_4 	NumInternalContention 	0
scalar MyScenario.node[79].nic.mac1609_4 	totalBusyTime 	0.003249118117
scalar MyScenario.node[79].veinsmobility 	startTime 	1
scalar MyScenario.node[79].veinsmobility 	totalTime 	209
scalar MyScenario.node[79].veinsmobility 	stopTime 	211
scalar MyScenario.node[79].veinsmobility 	minSpeed 	0
scalar MyScenario.node[79].veinsmobility 	maxSpeed 	13.889634318254
scalar MyScenario.node[79].veinsmobility 	totalDistance 	1173.7883309949
scalar MyScenario.node[79].veinsmobility 	totalCO2Emission 	447.92043594012
scalar MyScenario.node[328].appl 	generatedWSMs 	1
scalar MyScenario.node[328].appl 	receivedWSMs 	9
scalar MyScenario.node[328].appl 	generatedBSMs 	0
scalar MyScenario.node[328].appl 	receivedBSMs 	0
scalar MyScenario.node[328].appl 	generatedWSAs 	0
scalar MyScenario.node[328].appl 	receivedWSAs 	0
scalar MyScenario.node[328].nic.phy80211p 	busyTime 	2.0036363636364e-05
scalar MyScenario.node[328].nic.mac1609_4 	ReceivedUnicastPackets 	0
scalar MyScenario.node[328].nic.mac1609_4 	ReceivedBroadcasts 	9
scalar MyScenario.node[328].nic.mac1609_4 	SentPackets 	1
scalar MyScenario.node[328].nic.mac1609_4 	SNIRLostPackets 	10
scalar MyScenario.node[328].nic.mac1609_4 	RXTXLostPackets 	12
scalar MyScenario.node[328].nic.mac1609_4 	TotalLostPackets 	22
scalar MyScenario.node[328].nic.mac1609_4 	DroppedPacketsInMac 	0
scalar MyScenario.node[328].nic.mac1609_4 	TooLittleTime 	0
scalar MyScenario.node[328].nic.mac1609_4 	TimesIntoBackoff 	1
scalar MyScenario.node[328].nic.mac1609_4 	SlotsBackoff 	0
scalar MyScenario.node[328].nic.mac1609_4 	NumInternalContention 	0
scalar MyScenario.node[328].nic.mac1609_4 	totalBusyTime 	0.00278503221
scalar MyScenario.node[328].veinsmobility 	startTime 	4
scalar MyScenario.node[328].veinsmobility 	totalTime 	219
scalar MyScenario.node[328].veinsmobility 	stopTime 	224
scalar MyScenario.node[328].veinsmobility 	minSpeed 	7.9995920049584e-14
scalar MyScenario.node[328].veinsmobility 	maxSpeed 	13.893680740567
scalar MyScenario.node[328].veinsmobility 	totalDistance 	1763.6779054269
scalar MyScenario.node[328].veinsmobility 	totalCO2Emission 	577.91982764389
