version 2
run General-36-20170829-17:50:15-8100
attr configname General
attr datetime 20170829-17:50:15
attr density 400
attr experiment General
attr inifile omnetpp.ini
attr iterationvars $density=400
attr iterationvars2 "$density=400, $repetition=6"
attr measurement $density=400
attr network com.liborio.pi.MyScenario
attr processid 8100
attr repetition 6
attr replication #6
attr resultdir results
attr runnumber 36
attr seedset 6
param **.coreDebug false
param **.debug false
param *.**.nic.mac1609_4.bitrate 6Mbps
param *.**.nic.mac1609_4.txPower 20mW
param *.**.nic.mac1609_4.useServiceChannel true
param *.**.nic.phy80211p.analogueModels "xmldoc(\"config.xml\")"
param *.**.nic.phy80211p.antenna "xmldoc(\"antenna.xml\", \"/root/Antenna[@id='monopole']\")"
param *.**.nic.phy80211p.decider "xmldoc(\"config.xml\")"
param *.**.nic.phy80211p.sensitivity -84.39dBm
param *.**.nic.phy80211p.thermalNoise -110dBm
param *.**.nic.phy80211p.usePropagationDelay true
param *.**.nic.phy80211p.useThermalNoise true
param *.annotations.draw true
param *.connectionManager.drawMaxIntfDist false
param *.connectionManager.maxInterfDist 2600m
param *.connectionManager.sendDirect true
param *.manager.autoShutdown true
param *.manager.host "\"localhost\""
param *.manager.launchConfig "xmldoc(string(${density = 100, 200, 300, 400})+\"_\"+ string(${repetition})+\".launchd.xml\")"
param *.manager.port 9999
param *.manager.updateInterval 1s
param *.node[*].appl.beaconInterval 1s
param *.node[*].appl.dataOnSch true
param *.node[*].appl.headerLength "80 bit"
param *.node[*].appl.isSource false
param *.node[*].appl.numMsgs 100
param *.node[*].appl.sendBeacons false
param *.node[*].appl.stopTrafficTime 130s
param *.node[*].appl.wsmInterval 3s
param *.node[*].applType "\"Flooding\""
param *.node[*].veinsmobility.x 0
param *.node[*].veinsmobility.y 0
param *.node[*].veinsmobility.z 1.895
param *.node[*].veinsmobilityType.debug true
param *.node[0].appl.isSource true
param *.playgroundSizeX 2500m
param *.playgroundSizeY 2500m
param *.playgroundSizeZ 50m

scalar . 	density 	400
scalar MyScenario.node[192].appl 	generatedWSMs 	0
scalar MyScenario.node[192].appl 	receivedWSMs 	0
scalar MyScenario.node[192].appl 	generatedBSMs 	0
scalar MyScenario.node[192].appl 	receivedBSMs 	0
scalar MyScenario.node[192].appl 	generatedWSAs 	0
scalar MyScenario.node[192].appl 	receivedWSAs 	0
scalar MyScenario.node[192].nic.phy80211p 	busyTime 	0
scalar MyScenario.node[192].nic.mac1609_4 	ReceivedUnicastPackets 	0
scalar MyScenario.node[192].nic.mac1609_4 	ReceivedBroadcasts 	0
scalar MyScenario.node[192].nic.mac1609_4 	SentPackets 	0
scalar MyScenario.node[192].nic.mac1609_4 	SNIRLostPackets 	0
scalar MyScenario.node[192].nic.mac1609_4 	RXTXLostPackets 	0
scalar MyScenario.node[192].nic.mac1609_4 	TotalLostPackets 	0
scalar MyScenario.node[192].nic.mac1609_4 	DroppedPacketsInMac 	0
scalar MyScenario.node[192].nic.mac1609_4 	TooLittleTime 	0
scalar MyScenario.node[192].nic.mac1609_4 	TimesIntoBackoff 	0
scalar MyScenario.node[192].nic.mac1609_4 	SlotsBackoff 	0
scalar MyScenario.node[192].nic.mac1609_4 	NumInternalContention 	0
scalar MyScenario.node[192].nic.mac1609_4 	totalBusyTime 	0
scalar MyScenario.node[192].veinsmobility 	startTime 	1
scalar MyScenario.node[192].veinsmobility 	totalTime 	9
scalar MyScenario.node[192].veinsmobility 	stopTime 	11
scalar MyScenario.node[192].veinsmobility 	minSpeed 	1.917723471974
scalar MyScenario.node[192].veinsmobility 	maxSpeed 	13.569607600407
scalar MyScenario.node[192].veinsmobility 	totalDistance 	83.513862705231
scalar MyScenario.node[192].veinsmobility 	totalCO2Emission 	38.144516623292
scalar MyScenario.node[37].appl 	generatedWSMs 	0
scalar MyScenario.node[37].appl 	receivedWSMs 	0
scalar MyScenario.node[37].appl 	generatedBSMs 	0
scalar MyScenario.node[37].appl 	receivedBSMs 	0
scalar MyScenario.node[37].appl 	generatedWSAs 	0
scalar MyScenario.node[37].appl 	receivedWSAs 	0
scalar MyScenario.node[37].nic.phy80211p 	busyTime 	0
scalar MyScenario.node[37].nic.mac1609_4 	ReceivedUnicastPackets 	0
scalar MyScenario.node[37].nic.mac1609_4 	ReceivedBroadcasts 	0
scalar MyScenario.node[37].nic.mac1609_4 	SentPackets 	0
scalar MyScenario.node[37].nic.mac1609_4 	SNIRLostPackets 	0
scalar MyScenario.node[37].nic.mac1609_4 	RXTXLostPackets 	0
scalar MyScenario.node[37].nic.mac1609_4 	TotalLostPackets 	0
scalar MyScenario.node[37].nic.mac1609_4 	DroppedPacketsInMac 	0
scalar MyScenario.node[37].nic.mac1609_4 	TooLittleTime 	0
scalar MyScenario.node[37].nic.mac1609_4 	TimesIntoBackoff 	0
scalar MyScenario.node[37].nic.mac1609_4 	SlotsBackoff 	0
scalar MyScenario.node[37].nic.mac1609_4 	NumInternalContention 	0
scalar MyScenario.node[37].nic.mac1609_4 	totalBusyTime 	0
scalar MyScenario.node[37].veinsmobility 	startTime 	1
scalar MyScenario.node[37].veinsmobility 	totalTime 	9
scalar MyScenario.node[37].veinsmobility 	stopTime 	11
scalar MyScenario.node[37].veinsmobility 	minSpeed 	1.9044959081803
scalar MyScenario.node[37].veinsmobility 	maxSpeed 	13.795383576374
scalar MyScenario.node[37].veinsmobility 	totalDistance 	82.278614442144
scalar MyScenario.node[37].veinsmobility 	totalCO2Emission 	38.717276091148
scalar MyScenario.node[139].appl 	generatedWSMs 	0
scalar MyScenario.node[139].appl 	receivedWSMs 	0
scalar MyScenario.node[139].appl 	generatedBSMs 	0
scalar MyScenario.node[139].appl 	receivedBSMs 	0
scalar MyScenario.node[139].appl 	generatedWSAs 	0
scalar MyScenario.node[139].appl 	receivedWSAs 	0
scalar MyScenario.node[139].nic.phy80211p 	busyTime 	0
scalar MyScenario.node[139].nic.mac1609_4 	ReceivedUnicastPackets 	0
scalar MyScenario.node[139].nic.mac1609_4 	ReceivedBroadcasts 	0
scalar MyScenario.node[139].nic.mac1609_4 	SentPackets 	0
scalar MyScenario.node[139].nic.mac1609_4 	SNIRLostPackets 	0
scalar MyScenario.node[139].nic.mac1609_4 	RXTXLostPackets 	0
scalar MyScenario.node[139].nic.mac1609_4 	TotalLostPackets 	0
scalar MyScenario.node[139].nic.mac1609_4 	DroppedPacketsInMac 	0
scalar MyScenario.node[139].nic.mac1609_4 	TooLittleTime 	0
scalar MyScenario.node[139].nic.mac1609_4 	TimesIntoBackoff 	0
scalar MyScenario.node[139].nic.mac1609_4 	SlotsBackoff 	0
scalar MyScenario.node[139].nic.mac1609_4 	NumInternalContention 	0
scalar MyScenario.node[139].nic.mac1609_4 	totalBusyTime 	0
scalar MyScenario.node[139].veinsmobility 	startTime 	1
scalar MyScenario.node[139].veinsmobility 	totalTime 	9
scalar MyScenario.node[139].veinsmobility 	stopTime 	11
scalar MyScenario.node[139].veinsmobility 	minSpeed 	1.8295097693335
scalar MyScenario.node[139].veinsmobility 	maxSpeed 	13.036236693617
scalar MyScenario.node[139].veinsmobility 	totalDistance 	82.379529583827
scalar MyScenario.node[139].veinsmobility 	totalCO2Emission 	35.542827112012
scalar MyScenario.node[76].appl 	generatedWSMs 	0
scalar MyScenario.node[76].appl 	receivedWSMs 	0
scalar MyScenario.node[76].appl 	generatedBSMs 	0
scalar MyScenario.node[76].appl 	receivedBSMs 	0
scalar MyScenario.node[76].appl 	generatedWSAs 	0
scalar MyScenario.node[76].appl 	receivedWSAs 	0
scalar MyScenario.node[76].nic.phy80211p 	busyTime 	0
scalar MyScenario.node[76].nic.mac1609_4 	ReceivedUnicastPackets 	0
scalar MyScenario.node[76].nic.mac1609_4 	ReceivedBroadcasts 	0
scalar MyScenario.node[76].nic.mac1609_4 	SentPackets 	0
scalar MyScenario.node[76].nic.mac1609_4 	SNIRLostPackets 	0
scalar MyScenario.node[76].nic.mac1609_4 	RXTXLostPackets 	0
scalar MyScenario.node[76].nic.mac1609_4 	TotalLostPackets 	0
scalar MyScenario.node[76].nic.mac1609_4 	DroppedPacketsInMac 	0
scalar MyScenario.node[76].nic.mac1609_4 	TooLittleTime 	0
scalar MyScenario.node[76].nic.mac1609_4 	TimesIntoBackoff 	0
scalar MyScenario.node[76].nic.mac1609_4 	SlotsBackoff 	0
scalar MyScenario.node[76].nic.mac1609_4 	NumInternalContention 	0
scalar MyScenario.node[76].nic.mac1609_4 	totalBusyTime 	0
scalar MyScenario.node[76].veinsmobility 	startTime 	1
scalar MyScenario.node[76].veinsmobility 	totalTime 	10
scalar MyScenario.node[76].veinsmobility 	stopTime 	12
scalar MyScenario.node[76].veinsmobility 	minSpeed 	1.6681086091325
scalar MyScenario.node[76].veinsmobility 	maxSpeed 	13.706461226684
scalar MyScenario.node[76].veinsmobility 	totalDistance 	88.354629855105
scalar MyScenario.node[76].veinsmobility 	totalCO2Emission 	38.779208197783
scalar MyScenario.node[166].appl 	generatedWSMs 	0
scalar MyScenario.node[166].appl 	receivedWSMs 	0
scalar MyScenario.node[166].appl 	generatedBSMs 	0
scalar MyScenario.node[166].appl 	receivedBSMs 	0
scalar MyScenario.node[166].appl 	generatedWSAs 	0
scalar MyScenario.node[166].appl 	receivedWSAs 	0
scalar MyScenario.node[166].nic.phy80211p 	busyTime 	0.00021090909090909
scalar MyScenario.node[166].nic.mac1609_4 	ReceivedUnicastPackets 	0
scalar MyScenario.node[166].nic.mac1609_4 	ReceivedBroadcasts 	0
scalar MyScenario.node[166].nic.mac1609_4 	SentPackets 	0
scalar MyScenario.node[166].nic.mac1609_4 	SNIRLostPackets 	10
scalar MyScenario.node[166].nic.mac1609_4 	RXTXLostPackets 	0
scalar MyScenario.node[166].nic.mac1609_4 	TotalLostPackets 	10
scalar MyScenario.node[166].nic.mac1609_4 	DroppedPacketsInMac 	0
scalar MyScenario.node[166].nic.mac1609_4 	TooLittleTime 	0
scalar MyScenario.node[166].nic.mac1609_4 	TimesIntoBackoff 	0
scalar MyScenario.node[166].nic.mac1609_4 	SlotsBackoff 	0
scalar MyScenario.node[166].nic.mac1609_4 	NumInternalContention 	0
scalar MyScenario.node[166].nic.mac1609_4 	totalBusyTime 	0.000928
scalar MyScenario.node[166].veinsmobility 	startTime 	1
scalar MyScenario.node[166].veinsmobility 	totalTime 	10
scalar MyScenario.node[166].veinsmobility 	stopTime 	12
scalar MyScenario.node[166].veinsmobility 	minSpeed 	2.5739558940753
scalar MyScenario.node[166].veinsmobility 	maxSpeed 	13.449320040829
scalar MyScenario.node[166].veinsmobility 	totalDistance 	92.157390945253
scalar MyScenario.node[166].veinsmobility 	totalCO2Emission 	37.226097097126
scalar MyScenario.node[167].appl 	generatedWSMs 	0
scalar MyScenario.node[167].appl 	receivedWSMs 	0
scalar MyScenario.node[167].appl 	generatedBSMs 	0
scalar MyScenario.node[167].appl 	receivedBSMs 	0
scalar MyScenario.node[167].appl 	generatedWSAs 	0
scalar MyScenario.node[167].appl 	receivedWSAs 	0
scalar MyScenario.node[167].nic.phy80211p 	busyTime 	0.000232
scalar MyScenario.node[167].nic.mac1609_4 	ReceivedUnicastPackets 	0
scalar MyScenario.node[167].nic.mac1609_4 	ReceivedBroadcasts 	0
scalar MyScenario.node[167].nic.mac1609_4 	SentPackets 	0
scalar MyScenario.node[167].nic.mac1609_4 	SNIRLostPackets 	11
scalar MyScenario.node[167].nic.mac1609_4 	RXTXLostPackets 	0
scalar MyScenario.node[167].nic.mac1609_4 	TotalLostPackets 	11
scalar MyScenario.node[167].nic.mac1609_4 	DroppedPacketsInMac 	0
scalar MyScenario.node[167].nic.mac1609_4 	TooLittleTime 	0
scalar MyScenario.node[167].nic.mac1609_4 	TimesIntoBackoff 	0
scalar MyScenario.node[167].nic.mac1609_4 	SlotsBackoff 	0
scalar MyScenario.node[167].nic.mac1609_4 	NumInternalContention 	0
scalar MyScenario.node[167].nic.mac1609_4 	totalBusyTime 	0.000928
scalar MyScenario.node[167].veinsmobility 	startTime 	1
scalar MyScenario.node[167].veinsmobility 	totalTime 	10
scalar MyScenario.node[167].veinsmobility 	stopTime 	12
scalar MyScenario.node[167].veinsmobility 	minSpeed 	2.1000769779785
scalar MyScenario.node[167].veinsmobility 	maxSpeed 	13.816943377303
scalar MyScenario.node[167].veinsmobility 	totalDistance 	93.078473623332
scalar MyScenario.node[167].veinsmobility 	totalCO2Emission 	39.982159432408
scalar MyScenario.node[80].appl 	generatedWSMs 	0
scalar MyScenario.node[80].appl 	receivedWSMs 	0
scalar MyScenario.node[80].appl 	generatedBSMs 	0
scalar MyScenario.node[80].appl 	receivedBSMs 	0
scalar MyScenario.node[80].appl 	generatedWSAs 	0
scalar MyScenario.node[80].appl 	receivedWSAs 	0
scalar MyScenario.node[80].nic.phy80211p 	busyTime 	0.00040072727272727
scalar MyScenario.node[80].nic.mac1609_4 	ReceivedUnicastPackets 	0
scalar MyScenario.node[80].nic.mac1609_4 	ReceivedBroadcasts 	0
scalar MyScenario.node[80].nic.mac1609_4 	SentPackets 	0
scalar MyScenario.node[80].nic.mac1609_4 	SNIRLostPackets 	19
scalar MyScenario.node[80].nic.mac1609_4 	RXTXLostPackets 	0
scalar MyScenario.node[80].nic.mac1609_4 	TotalLostPackets 	19
scalar MyScenario.node[80].nic.mac1609_4 	DroppedPacketsInMac 	0
scalar MyScenario.node[80].nic.mac1609_4 	TooLittleTime 	0
scalar MyScenario.node[80].nic.mac1609_4 	TimesIntoBackoff 	0
scalar MyScenario.node[80].nic.mac1609_4 	SlotsBackoff 	0
scalar MyScenario.node[80].nic.mac1609_4 	NumInternalContention 	0
scalar MyScenario.node[80].nic.mac1609_4 	totalBusyTime 	0.001392
scalar MyScenario.node[80].veinsmobility 	startTime 	1
scalar MyScenario.node[80].veinsmobility 	totalTime 	10
scalar MyScenario.node[80].veinsmobility 	stopTime 	12
scalar MyScenario.node[80].veinsmobility 	minSpeed 	1.9106833078666
scalar MyScenario.node[80].veinsmobility 	maxSpeed 	13.681732738647
scalar MyScenario.node[80].veinsmobility 	totalDistance 	92.953828598632
scalar MyScenario.node[80].veinsmobility 	totalCO2Emission 	39.125324110165
scalar MyScenario.node[121].appl 	generatedWSMs 	0
scalar MyScenario.node[121].appl 	receivedWSMs 	0
scalar MyScenario.node[121].appl 	generatedBSMs 	0
scalar MyScenario.node[121].appl 	receivedBSMs 	0
scalar MyScenario.node[121].appl 	generatedWSAs 	0
scalar MyScenario.node[121].appl 	receivedWSAs 	0
scalar MyScenario.node[121].nic.phy80211p 	busyTime 	0
scalar MyScenario.node[121].nic.mac1609_4 	ReceivedUnicastPackets 	0
scalar MyScenario.node[121].nic.mac1609_4 	ReceivedBroadcasts 	0
scalar MyScenario.node[121].nic.mac1609_4 	SentPackets 	0
scalar MyScenario.node[121].nic.mac1609_4 	SNIRLostPackets 	0
scalar MyScenario.node[121].nic.mac1609_4 	RXTXLostPackets 	0
scalar MyScenario.node[121].nic.mac1609_4 	TotalLostPackets 	0
scalar MyScenario.node[121].nic.mac1609_4 	DroppedPacketsInMac 	0
scalar MyScenario.node[121].nic.mac1609_4 	TooLittleTime 	0
scalar MyScenario.node[121].nic.mac1609_4 	TimesIntoBackoff 	0
scalar MyScenario.node[121].nic.mac1609_4 	SlotsBackoff 	0
scalar MyScenario.node[121].nic.mac1609_4 	NumInternalContention 	0
scalar MyScenario.node[121].nic.mac1609_4 	totalBusyTime 	0
scalar MyScenario.node[121].veinsmobility 	startTime 	1
scalar MyScenario.node[121].veinsmobility 	totalTime 	10
scalar MyScenario.node[121].veinsmobility 	stopTime 	12
scalar MyScenario.node[121].veinsmobility 	minSpeed 	1.7773456384195
scalar MyScenario.node[121].veinsmobility 	maxSpeed 	13.657258331566
scalar MyScenario.node[121].veinsmobility 	totalDistance 	93.189054261647
scalar MyScenario.node[121].veinsmobility 	totalCO2Emission 	39.90020297285
scalar MyScenario.node[335].appl 	generatedWSMs 	0
scalar MyScenario.node[335].appl 	receivedWSMs 	0
scalar MyScenario.node[335].appl 	generatedBSMs 	0
scalar MyScenario.node[335].appl 	receivedBSMs 	0
scalar MyScenario.node[335].appl 	generatedWSAs 	0
scalar MyScenario.node[335].appl 	receivedWSAs 	0
scalar MyScenario.node[335].nic.phy80211p 	busyTime 	0
scalar MyScenario.node[335].nic.mac1609_4 	ReceivedUnicastPackets 	0
scalar MyScenario.node[335].nic.mac1609_4 	ReceivedBroadcasts 	0
scalar MyScenario.node[335].nic.mac1609_4 	SentPackets 	0
scalar MyScenario.node[335].nic.mac1609_4 	SNIRLostPackets 	0
scalar MyScenario.node[335].nic.mac1609_4 	RXTXLostPackets 	0
scalar MyScenario.node[335].nic.mac1609_4 	TotalLostPackets 	0
scalar MyScenario.node[335].nic.mac1609_4 	DroppedPacketsInMac 	0
scalar MyScenario.node[335].nic.mac1609_4 	TooLittleTime 	0
scalar MyScenario.node[335].nic.mac1609_4 	TimesIntoBackoff 	0
scalar MyScenario.node[335].nic.mac1609_4 	SlotsBackoff 	0
scalar MyScenario.node[335].nic.mac1609_4 	NumInternalContention 	0
scalar MyScenario.node[335].nic.mac1609_4 	totalBusyTime 	0
scalar MyScenario.node[335].veinsmobility 	startTime 	4
scalar MyScenario.node[335].veinsmobility 	totalTime 	9
scalar MyScenario.node[335].veinsmobility 	stopTime 	14
scalar MyScenario.node[335].veinsmobility 	minSpeed 	2.0364837719772
scalar MyScenario.node[335].veinsmobility 	maxSpeed 	13.81589653003
scalar MyScenario.node[335].veinsmobility 	totalDistance 	83.66848187676
scalar MyScenario.node[335].veinsmobility 	totalCO2Emission 	38.176936774845
scalar MyScenario.node[230].appl 	generatedWSMs 	0
scalar MyScenario.node[230].appl 	receivedWSMs 	0
scalar MyScenario.node[230].appl 	generatedBSMs 	0
scalar MyScenario.node[230].appl 	receivedBSMs 	0
scalar MyScenario.node[230].appl 	generatedWSAs 	0
scalar MyScenario.node[230].appl 	receivedWSAs 	0
scalar MyScenario.node[230].nic.phy80211p 	busyTime 	0
scalar MyScenario.node[230].nic.mac1609_4 	ReceivedUnicastPackets 	0
scalar MyScenario.node[230].nic.mac1609_4 	ReceivedBroadcasts 	0
scalar MyScenario.node[230].nic.mac1609_4 	SentPackets 	0
scalar MyScenario.node[230].nic.mac1609_4 	SNIRLostPackets 	0
scalar MyScenario.node[230].nic.mac1609_4 	RXTXLostPackets 	0
scalar MyScenario.node[230].nic.mac1609_4 	TotalLostPackets 	0
scalar MyScenario.node[230].nic.mac1609_4 	DroppedPacketsInMac 	0
scalar MyScenario.node[230].nic.mac1609_4 	TooLittleTime 	0
scalar MyScenario.node[230].nic.mac1609_4 	TimesIntoBackoff 	0
scalar MyScenario.node[230].nic.mac1609_4 	SlotsBackoff 	0
scalar MyScenario.node[230].nic.mac1609_4 	NumInternalContention 	0
scalar MyScenario.node[230].nic.mac1609_4 	totalBusyTime 	0
scalar MyScenario.node[230].veinsmobility 	startTime 	1
scalar MyScenario.node[230].veinsmobility 	totalTime 	18
scalar MyScenario.node[230].veinsmobility 	stopTime 	20
scalar MyScenario.node[230].veinsmobility 	minSpeed 	1.8789313300513
scalar MyScenario.node[230].veinsmobility 	maxSpeed 	13.893867117795
scalar MyScenario.node[230].veinsmobility 	totalDistance 	174.90981164236
scalar MyScenario.node[230].veinsmobility 	totalCO2Emission 	76.532589438262
scalar MyScenario.node[177].appl 	generatedWSMs 	1
scalar MyScenario.node[177].appl 	receivedWSMs 	9
scalar MyScenario.node[177].appl 	generatedBSMs 	0
scalar MyScenario.node[177].appl 	receivedBSMs 	0
scalar MyScenario.node[177].appl 	generatedWSAs 	0
scalar MyScenario.node[177].appl 	receivedWSAs 	0
scalar MyScenario.node[177].nic.phy80211p 	busyTime 	0.0003944
scalar MyScenario.node[177].nic.mac1609_4 	ReceivedUnicastPackets 	0
scalar MyScenario.node[177].nic.mac1609_4 	ReceivedBroadcasts 	9
scalar MyScenario.node[177].nic.mac1609_4 	SentPackets 	1
scalar MyScenario.node[177].nic.mac1609_4 	SNIRLostPackets 	25
scalar MyScenario.node[177].nic.mac1609_4 	RXTXLostPackets 	13
scalar MyScenario.node[177].nic.mac1609_4 	TotalLostPackets 	38
scalar MyScenario.node[177].nic.mac1609_4 	DroppedPacketsInMac 	0
scalar MyScenario.node[177].nic.mac1609_4 	TooLittleTime 	0
scalar MyScenario.node[177].nic.mac1609_4 	TimesIntoBackoff 	1
scalar MyScenario.node[177].nic.mac1609_4 	SlotsBackoff 	3
scalar MyScenario.node[177].nic.mac1609_4 	NumInternalContention 	0
scalar MyScenario.node[177].nic.mac1609_4 	totalBusyTime 	0.003945160132
scalar MyScenario.node[177].veinsmobility 	startTime 	1
scalar MyScenario.node[177].veinsmobility 	totalTime 	19
scalar MyScenario.node[177].veinsmobility 	stopTime 	21
scalar MyScenario.node[177].veinsmobility 	minSpeed 	2.2519307665061
scalar MyScenario.node[177].veinsmobility 	maxSpeed 	13.582815824453
scalar MyScenario.node[177].veinsmobility 	totalDistance 	176.25801496641
scalar MyScenario.node[177].veinsmobility 	totalCO2Emission 	73.204623582321
scalar MyScenario.node[89].appl 	generatedWSMs 	0
scalar MyScenario.node[89].appl 	receivedWSMs 	0
scalar MyScenario.node[89].appl 	generatedBSMs 	0
scalar MyScenario.node[89].appl 	receivedBSMs 	0
scalar MyScenario.node[89].appl 	generatedWSAs 	0
scalar MyScenario.node[89].appl 	receivedWSAs 	0
scalar MyScenario.node[89].nic.phy80211p 	busyTime 	0
scalar MyScenario.node[89].nic.mac1609_4 	ReceivedUnicastPackets 	0
scalar MyScenario.node[89].nic.mac1609_4 	ReceivedBroadcasts 	0
scalar MyScenario.node[89].nic.mac1609_4 	SentPackets 	0
scalar MyScenario.node[89].nic.mac1609_4 	SNIRLostPackets 	0
scalar MyScenario.node[89].nic.mac1609_4 	RXTXLostPackets 	0
scalar MyScenario.node[89].nic.mac1609_4 	TotalLostPackets 	0
scalar MyScenario.node[89].nic.mac1609_4 	DroppedPacketsInMac 	0
scalar MyScenario.node[89].nic.mac1609_4 	TooLittleTime 	0
scalar MyScenario.node[89].nic.mac1609_4 	TimesIntoBackoff 	0
scalar MyScenario.node[89].nic.mac1609_4 	SlotsBackoff 	0
scalar MyScenario.node[89].nic.mac1609_4 	NumInternalContention 	0
scalar MyScenario.node[89].nic.mac1609_4 	totalBusyTime 	0
scalar MyScenario.node[89].veinsmobility 	startTime 	1
scalar MyScenario.node[89].veinsmobility 	totalTime 	20
scalar MyScenario.node[89].veinsmobility 	stopTime 	22
scalar MyScenario.node[89].veinsmobility 	minSpeed 	1.5601997147547
scalar MyScenario.node[89].veinsmobility 	maxSpeed 	13.680396252801
scalar MyScenario.node[89].veinsmobility 	totalDistance 	180.13266293017
scalar MyScenario.node[89].veinsmobility 	totalCO2Emission 	77.652083792589
scalar MyScenario.node[227].appl 	generatedWSMs 	0
scalar MyScenario.node[227].appl 	receivedWSMs 	0
scalar MyScenario.node[227].appl 	generatedBSMs 	0
scalar MyScenario.node[227].appl 	receivedBSMs 	0
scalar MyScenario.node[227].appl 	generatedWSAs 	0
scalar MyScenario.node[227].appl 	receivedWSAs 	0
scalar MyScenario.node[227].nic.phy80211p 	busyTime 	0
scalar MyScenario.node[227].nic.mac1609_4 	ReceivedUnicastPackets 	0
scalar MyScenario.node[227].nic.mac1609_4 	ReceivedBroadcasts 	0
scalar MyScenario.node[227].nic.mac1609_4 	SentPackets 	0
scalar MyScenario.node[227].nic.mac1609_4 	SNIRLostPackets 	0
scalar MyScenario.node[227].nic.mac1609_4 	RXTXLostPackets 	0
scalar MyScenario.node[227].nic.mac1609_4 	TotalLostPackets 	0
scalar MyScenario.node[227].nic.mac1609_4 	DroppedPacketsInMac 	0
scalar MyScenario.node[227].nic.mac1609_4 	TooLittleTime 	0
scalar MyScenario.node[227].nic.mac1609_4 	TimesIntoBackoff 	0
scalar MyScenario.node[227].nic.mac1609_4 	SlotsBackoff 	0
scalar MyScenario.node[227].nic.mac1609_4 	NumInternalContention 	0
scalar MyScenario.node[227].nic.mac1609_4 	totalBusyTime 	0
scalar MyScenario.node[227].veinsmobility 	startTime 	1
scalar MyScenario.node[227].veinsmobility 	totalTime 	21
scalar MyScenario.node[227].veinsmobility 	stopTime 	23
scalar MyScenario.node[227].veinsmobility 	minSpeed 	0.70360397903642
scalar MyScenario.node[227].veinsmobility 	maxSpeed 	13.717179732327
scalar MyScenario.node[227].veinsmobility 	totalDistance 	186.89636348816
scalar MyScenario.node[227].veinsmobility 	totalCO2Emission 	82.989989653811
scalar MyScenario.node[35].appl 	generatedWSMs 	1
scalar MyScenario.node[35].appl 	receivedWSMs 	9
scalar MyScenario.node[35].appl 	generatedBSMs 	0
scalar MyScenario.node[35].appl 	receivedBSMs 	0
scalar MyScenario.node[35].appl 	generatedWSAs 	0
scalar MyScenario.node[35].appl 	receivedWSAs 	0
scalar MyScenario.node[35].nic.phy80211p 	busyTime 	0.00030624
scalar MyScenario.node[35].nic.mac1609_4 	ReceivedUnicastPackets 	0
scalar MyScenario.node[35].nic.mac1609_4 	ReceivedBroadcasts 	9
scalar MyScenario.node[35].nic.mac1609_4 	SentPackets 	1
scalar MyScenario.node[35].nic.mac1609_4 	SNIRLostPackets 	24
scalar MyScenario.node[35].nic.mac1609_4 	RXTXLostPackets 	4
scalar MyScenario.node[35].nic.mac1609_4 	TotalLostPackets 	28
scalar MyScenario.node[35].nic.mac1609_4 	DroppedPacketsInMac 	0
scalar MyScenario.node[35].nic.mac1609_4 	TooLittleTime 	0
scalar MyScenario.node[35].nic.mac1609_4 	TimesIntoBackoff 	1
scalar MyScenario.node[35].nic.mac1609_4 	SlotsBackoff 	0
scalar MyScenario.node[35].nic.mac1609_4 	NumInternalContention 	0
scalar MyScenario.node[35].nic.mac1609_4 	totalBusyTime 	0.004641089749
scalar MyScenario.node[35].veinsmobility 	startTime 	1
scalar MyScenario.node[35].veinsmobility 	totalTime 	24
scalar MyScenario.node[35].veinsmobility 	stopTime 	26
scalar MyScenario.node[35].veinsmobility 	minSpeed 	2.2033495340031
scalar MyScenario.node[35].veinsmobility 	maxSpeed 	13.883350952412
scalar MyScenario.node[35].veinsmobility 	totalDistance 	284.90209940362
scalar MyScenario.node[35].veinsmobility 	totalCO2Emission 	72.630469397426
scalar MyScenario.node[113].appl 	generatedWSMs 	0
scalar MyScenario.node[113].appl 	receivedWSMs 	0
scalar MyScenario.node[113].appl 	generatedBSMs 	0
scalar MyScenario.node[113].appl 	receivedBSMs 	0
scalar MyScenario.node[113].appl 	generatedWSAs 	0
scalar MyScenario.node[113].appl 	receivedWSAs 	0
scalar MyScenario.node[113].nic.phy80211p 	busyTime 	0
scalar MyScenario.node[113].nic.mac1609_4 	ReceivedUnicastPackets 	0
scalar MyScenario.node[113].nic.mac1609_4 	ReceivedBroadcasts 	0
scalar MyScenario.node[113].nic.mac1609_4 	SentPackets 	0
scalar MyScenario.node[113].nic.mac1609_4 	SNIRLostPackets 	0
scalar MyScenario.node[113].nic.mac1609_4 	RXTXLostPackets 	0
scalar MyScenario.node[113].nic.mac1609_4 	TotalLostPackets 	0
scalar MyScenario.node[113].nic.mac1609_4 	DroppedPacketsInMac 	0
scalar MyScenario.node[113].nic.mac1609_4 	TooLittleTime 	0
scalar MyScenario.node[113].nic.mac1609_4 	TimesIntoBackoff 	0
scalar MyScenario.node[113].nic.mac1609_4 	SlotsBackoff 	0
scalar MyScenario.node[113].nic.mac1609_4 	NumInternalContention 	0
scalar MyScenario.node[113].nic.mac1609_4 	totalBusyTime 	0
scalar MyScenario.node[113].veinsmobility 	startTime 	1
scalar MyScenario.node[113].veinsmobility 	totalTime 	25
scalar MyScenario.node[113].veinsmobility 	stopTime 	27
scalar MyScenario.node[113].veinsmobility 	minSpeed 	2.2978320284514
scalar MyScenario.node[113].veinsmobility 	maxSpeed 	13.836065543443
scalar MyScenario.node[113].veinsmobility 	totalDistance 	269.15803128569
scalar MyScenario.node[113].veinsmobility 	totalCO2Emission 	86.019216237221
scalar MyScenario.node[183].appl 	generatedWSMs 	0
scalar MyScenario.node[183].appl 	receivedWSMs 	0
scalar MyScenario.node[183].appl 	generatedBSMs 	0
scalar MyScenario.node[183].appl 	receivedBSMs 	0
scalar MyScenario.node[183].appl 	generatedWSAs 	0
scalar MyScenario.node[183].appl 	receivedWSAs 	0
scalar MyScenario.node[183].nic.phy80211p 	busyTime 	0
scalar MyScenario.node[183].nic.mac1609_4 	ReceivedUnicastPackets 	0
scalar MyScenario.node[183].nic.mac1609_4 	ReceivedBroadcasts 	0
scalar MyScenario.node[183].nic.mac1609_4 	SentPackets 	0
scalar MyScenario.node[183].nic.mac1609_4 	SNIRLostPackets 	0
scalar MyScenario.node[183].nic.mac1609_4 	RXTXLostPackets 	0
scalar MyScenario.node[183].nic.mac1609_4 	TotalLostPackets 	0
scalar MyScenario.node[183].nic.mac1609_4 	DroppedPacketsInMac 	0
scalar MyScenario.node[183].nic.mac1609_4 	TooLittleTime 	0
scalar MyScenario.node[183].nic.mac1609_4 	TimesIntoBackoff 	0
scalar MyScenario.node[183].nic.mac1609_4 	SlotsBackoff 	0
scalar MyScenario.node[183].nic.mac1609_4 	NumInternalContention 	0
scalar MyScenario.node[183].nic.mac1609_4 	totalBusyTime 	0
scalar MyScenario.node[183].veinsmobility 	startTime 	1
scalar MyScenario.node[183].veinsmobility 	totalTime 	27
scalar MyScenario.node[183].veinsmobility 	stopTime 	29
scalar MyScenario.node[183].veinsmobility 	minSpeed 	1.4650459717726
scalar MyScenario.node[183].veinsmobility 	maxSpeed 	13.654219085793
scalar MyScenario.node[183].veinsmobility 	totalDistance 	268.5555092854
scalar MyScenario.node[183].veinsmobility 	totalCO2Emission 	91.60556081856
scalar MyScenario.node[181].appl 	generatedWSMs 	1
scalar MyScenario.node[181].appl 	receivedWSMs 	6
scalar MyScenario.node[181].appl 	generatedBSMs 	0
scalar MyScenario.node[181].appl 	receivedBSMs 	0
scalar MyScenario.node[181].appl 	generatedWSAs 	0
scalar MyScenario.node[181].appl 	receivedWSAs 	0
scalar MyScenario.node[181].nic.phy80211p 	busyTime 	0.00028275
scalar MyScenario.node[181].nic.mac1609_4 	ReceivedUnicastPackets 	0
scalar MyScenario.node[181].nic.mac1609_4 	ReceivedBroadcasts 	6
scalar MyScenario.node[181].nic.mac1609_4 	SentPackets 	1
scalar MyScenario.node[181].nic.mac1609_4 	SNIRLostPackets 	33
scalar MyScenario.node[181].nic.mac1609_4 	RXTXLostPackets 	6
scalar MyScenario.node[181].nic.mac1609_4 	TotalLostPackets 	39
scalar MyScenario.node[181].nic.mac1609_4 	DroppedPacketsInMac 	0
scalar MyScenario.node[181].nic.mac1609_4 	TooLittleTime 	0
scalar MyScenario.node[181].nic.mac1609_4 	TimesIntoBackoff 	1
scalar MyScenario.node[181].nic.mac1609_4 	SlotsBackoff 	2
scalar MyScenario.node[181].nic.mac1609_4 	NumInternalContention 	0
scalar MyScenario.node[181].nic.mac1609_4 	totalBusyTime 	0.003713
scalar MyScenario.node[181].veinsmobility 	startTime 	1
scalar MyScenario.node[181].veinsmobility 	totalTime 	31
scalar MyScenario.node[181].veinsmobility 	stopTime 	33
scalar MyScenario.node[181].veinsmobility 	minSpeed 	1.9118545783451
scalar MyScenario.node[181].veinsmobility 	maxSpeed 	13.861572997714
scalar MyScenario.node[181].veinsmobility 	totalDistance 	371.21304513863
scalar MyScenario.node[181].veinsmobility 	totalCO2Emission 	88.297644712062
scalar MyScenario.node[114].appl 	generatedWSMs 	0
scalar MyScenario.node[114].appl 	receivedWSMs 	0
scalar MyScenario.node[114].appl 	generatedBSMs 	0
scalar MyScenario.node[114].appl 	receivedBSMs 	0
scalar MyScenario.node[114].appl 	generatedWSAs 	0
scalar MyScenario.node[114].appl 	receivedWSAs 	0
scalar MyScenario.node[114].nic.phy80211p 	busyTime 	0
scalar MyScenario.node[114].nic.mac1609_4 	ReceivedUnicastPackets 	0
scalar MyScenario.node[114].nic.mac1609_4 	ReceivedBroadcasts 	0
scalar MyScenario.node[114].nic.mac1609_4 	SentPackets 	0
scalar MyScenario.node[114].nic.mac1609_4 	SNIRLostPackets 	0
scalar MyScenario.node[114].nic.mac1609_4 	RXTXLostPackets 	0
scalar MyScenario.node[114].nic.mac1609_4 	TotalLostPackets 	0
scalar MyScenario.node[114].nic.mac1609_4 	DroppedPacketsInMac 	0
scalar MyScenario.node[114].nic.mac1609_4 	TooLittleTime 	0
scalar MyScenario.node[114].nic.mac1609_4 	TimesIntoBackoff 	0
scalar MyScenario.node[114].nic.mac1609_4 	SlotsBackoff 	0
scalar MyScenario.node[114].nic.mac1609_4 	NumInternalContention 	0
scalar MyScenario.node[114].nic.mac1609_4 	totalBusyTime 	0
scalar MyScenario.node[114].veinsmobility 	startTime 	1
scalar MyScenario.node[114].veinsmobility 	totalTime 	31
scalar MyScenario.node[114].veinsmobility 	stopTime 	33
scalar MyScenario.node[114].veinsmobility 	minSpeed 	1.7572395261144
scalar MyScenario.node[114].veinsmobility 	maxSpeed 	13.892744015181
scalar MyScenario.node[114].veinsmobility 	totalDistance 	369.55029960397
scalar MyScenario.node[114].veinsmobility 	totalCO2Emission 	94.643124622425
scalar MyScenario.node[52].appl 	generatedWSMs 	0
scalar MyScenario.node[52].appl 	receivedWSMs 	0
scalar MyScenario.node[52].appl 	generatedBSMs 	0
scalar MyScenario.node[52].appl 	receivedBSMs 	0
scalar MyScenario.node[52].appl 	generatedWSAs 	0
scalar MyScenario.node[52].appl 	receivedWSAs 	0
scalar MyScenario.node[52].nic.phy80211p 	busyTime 	7.030303030303e-06
scalar MyScenario.node[52].nic.mac1609_4 	ReceivedUnicastPackets 	0
scalar MyScenario.node[52].nic.mac1609_4 	ReceivedBroadcasts 	0
scalar MyScenario.node[52].nic.mac1609_4 	SentPackets 	0
scalar MyScenario.node[52].nic.mac1609_4 	SNIRLostPackets 	1
scalar MyScenario.node[52].nic.mac1609_4 	RXTXLostPackets 	0
scalar MyScenario.node[52].nic.mac1609_4 	TotalLostPackets 	1
scalar MyScenario.node[52].nic.mac1609_4 	DroppedPacketsInMac 	0
scalar MyScenario.node[52].nic.mac1609_4 	TooLittleTime 	0
scalar MyScenario.node[52].nic.mac1609_4 	TimesIntoBackoff 	0
scalar MyScenario.node[52].nic.mac1609_4 	SlotsBackoff 	0
scalar MyScenario.node[52].nic.mac1609_4 	NumInternalContention 	0
scalar MyScenario.node[52].nic.mac1609_4 	totalBusyTime 	0.000232
scalar MyScenario.node[52].veinsmobility 	startTime 	1
scalar MyScenario.node[52].veinsmobility 	totalTime 	32
scalar MyScenario.node[52].veinsmobility 	stopTime 	34
scalar MyScenario.node[52].veinsmobility 	minSpeed 	0.0082292563168157
scalar MyScenario.node[52].veinsmobility 	maxSpeed 	13.848470268771
scalar MyScenario.node[52].veinsmobility 	totalDistance 	273.25537286504
scalar MyScenario.node[52].veinsmobility 	totalCO2Emission 	99.391202907911
scalar MyScenario.node[359].appl 	generatedWSMs 	0
scalar MyScenario.node[359].appl 	receivedWSMs 	0
scalar MyScenario.node[359].appl 	generatedBSMs 	0
scalar MyScenario.node[359].appl 	receivedBSMs 	0
scalar MyScenario.node[359].appl 	generatedWSAs 	0
scalar MyScenario.node[359].appl 	receivedWSAs 	0
scalar MyScenario.node[359].nic.phy80211p 	busyTime 	8.5925925925926e-06
scalar MyScenario.node[359].nic.mac1609_4 	ReceivedUnicastPackets 	0
scalar MyScenario.node[359].nic.mac1609_4 	ReceivedBroadcasts 	0
scalar MyScenario.node[359].nic.mac1609_4 	SentPackets 	0
scalar MyScenario.node[359].nic.mac1609_4 	SNIRLostPackets 	1
scalar MyScenario.node[359].nic.mac1609_4 	RXTXLostPackets 	0
scalar MyScenario.node[359].nic.mac1609_4 	TotalLostPackets 	1
scalar MyScenario.node[359].nic.mac1609_4 	DroppedPacketsInMac 	0
scalar MyScenario.node[359].nic.mac1609_4 	TooLittleTime 	0
scalar MyScenario.node[359].nic.mac1609_4 	TimesIntoBackoff 	0
scalar MyScenario.node[359].nic.mac1609_4 	SlotsBackoff 	0
scalar MyScenario.node[359].nic.mac1609_4 	NumInternalContention 	0
scalar MyScenario.node[359].nic.mac1609_4 	totalBusyTime 	0.000232
scalar MyScenario.node[359].veinsmobility 	startTime 	7
scalar MyScenario.node[359].veinsmobility 	totalTime 	26
scalar MyScenario.node[359].veinsmobility 	stopTime 	34
scalar MyScenario.node[359].veinsmobility 	minSpeed 	2.5748219083063
scalar MyScenario.node[359].veinsmobility 	maxSpeed 	13.786564058904
scalar MyScenario.node[359].veinsmobility 	totalDistance 	279.82365845292
scalar MyScenario.node[359].veinsmobility 	totalCO2Emission 	90.767659855566
scalar MyScenario.node[13].appl 	generatedWSMs 	1
scalar MyScenario.node[13].appl 	receivedWSMs 	18
scalar MyScenario.node[13].appl 	generatedBSMs 	0
scalar MyScenario.node[13].appl 	receivedBSMs 	0
scalar MyScenario.node[13].appl 	generatedWSAs 	0
scalar MyScenario.node[13].appl 	receivedWSAs 	0
scalar MyScenario.node[13].nic.phy80211p 	busyTime 	0.00052844444444444
scalar MyScenario.node[13].nic.mac1609_4 	ReceivedUnicastPackets 	0
scalar MyScenario.node[13].nic.mac1609_4 	ReceivedBroadcasts 	18
scalar MyScenario.node[13].nic.mac1609_4 	SentPackets 	1
scalar MyScenario.node[13].nic.mac1609_4 	SNIRLostPackets 	64
scalar MyScenario.node[13].nic.mac1609_4 	RXTXLostPackets 	30
scalar MyScenario.node[13].nic.mac1609_4 	TotalLostPackets 	94
scalar MyScenario.node[13].nic.mac1609_4 	DroppedPacketsInMac 	0
scalar MyScenario.node[13].nic.mac1609_4 	TooLittleTime 	0
scalar MyScenario.node[13].nic.mac1609_4 	TimesIntoBackoff 	1
scalar MyScenario.node[13].nic.mac1609_4 	SlotsBackoff 	0
scalar MyScenario.node[13].nic.mac1609_4 	NumInternalContention 	0
scalar MyScenario.node[13].nic.mac1609_4 	totalBusyTime 	0.00696158812
scalar MyScenario.node[13].veinsmobility 	startTime 	1
scalar MyScenario.node[13].veinsmobility 	totalTime 	35
scalar MyScenario.node[13].veinsmobility 	stopTime 	37
scalar MyScenario.node[13].veinsmobility 	minSpeed 	1.514927339484
scalar MyScenario.node[13].veinsmobility 	maxSpeed 	13.790554155526
scalar MyScenario.node[13].veinsmobility 	totalDistance 	385.34811398107
scalar MyScenario.node[13].veinsmobility 	totalCO2Emission 	123.15035923898
scalar MyScenario.node[245].appl 	generatedWSMs 	0
scalar MyScenario.node[245].appl 	receivedWSMs 	0
scalar MyScenario.node[245].appl 	generatedBSMs 	0
scalar MyScenario.node[245].appl 	receivedBSMs 	0
scalar MyScenario.node[245].appl 	generatedWSAs 	0
scalar MyScenario.node[245].appl 	receivedWSAs 	0
scalar MyScenario.node[245].nic.phy80211p 	busyTime 	0
scalar MyScenario.node[245].nic.mac1609_4 	ReceivedUnicastPackets 	0
scalar MyScenario.node[245].nic.mac1609_4 	ReceivedBroadcasts 	0
scalar MyScenario.node[245].nic.mac1609_4 	SentPackets 	0
scalar MyScenario.node[245].nic.mac1609_4 	SNIRLostPackets 	0
scalar MyScenario.node[245].nic.mac1609_4 	RXTXLostPackets 	0
scalar MyScenario.node[245].nic.mac1609_4 	TotalLostPackets 	0
scalar MyScenario.node[245].nic.mac1609_4 	DroppedPacketsInMac 	0
scalar MyScenario.node[245].nic.mac1609_4 	TooLittleTime 	0
scalar MyScenario.node[245].nic.mac1609_4 	TimesIntoBackoff 	0
scalar MyScenario.node[245].nic.mac1609_4 	SlotsBackoff 	0
scalar MyScenario.node[245].nic.mac1609_4 	NumInternalContention 	0
scalar MyScenario.node[245].nic.mac1609_4 	totalBusyTime 	0
scalar MyScenario.node[245].veinsmobility 	startTime 	4
scalar MyScenario.node[245].veinsmobility 	totalTime 	32
scalar MyScenario.node[245].veinsmobility 	stopTime 	37
scalar MyScenario.node[245].veinsmobility 	minSpeed 	1.4230556851194
scalar MyScenario.node[245].veinsmobility 	maxSpeed 	13.884365872107
scalar MyScenario.node[245].veinsmobility 	totalDistance 	365.18326555757
scalar MyScenario.node[245].veinsmobility 	totalCO2Emission 	99.539723923181
scalar MyScenario.node[148].appl 	generatedWSMs 	0
scalar MyScenario.node[148].appl 	receivedWSMs 	0
scalar MyScenario.node[148].appl 	generatedBSMs 	0
scalar MyScenario.node[148].appl 	receivedBSMs 	0
scalar MyScenario.node[148].appl 	generatedWSAs 	0
scalar MyScenario.node[148].appl 	receivedWSAs 	0
scalar MyScenario.node[148].nic.phy80211p 	busyTime 	0.00010659459459459
scalar MyScenario.node[148].nic.mac1609_4 	ReceivedUnicastPackets 	0
scalar MyScenario.node[148].nic.mac1609_4 	ReceivedBroadcasts 	0
scalar MyScenario.node[148].nic.mac1609_4 	SentPackets 	0
scalar MyScenario.node[148].nic.mac1609_4 	SNIRLostPackets 	17
scalar MyScenario.node[148].nic.mac1609_4 	RXTXLostPackets 	0
scalar MyScenario.node[148].nic.mac1609_4 	TotalLostPackets 	17
scalar MyScenario.node[148].nic.mac1609_4 	DroppedPacketsInMac 	0
scalar MyScenario.node[148].nic.mac1609_4 	TooLittleTime 	0
scalar MyScenario.node[148].nic.mac1609_4 	TimesIntoBackoff 	0
scalar MyScenario.node[148].nic.mac1609_4 	SlotsBackoff 	0
scalar MyScenario.node[148].nic.mac1609_4 	NumInternalContention 	0
scalar MyScenario.node[148].nic.mac1609_4 	totalBusyTime 	0.000696
scalar MyScenario.node[148].veinsmobility 	startTime 	1
scalar MyScenario.node[148].veinsmobility 	totalTime 	36
scalar MyScenario.node[148].veinsmobility 	stopTime 	38
scalar MyScenario.node[148].veinsmobility 	minSpeed 	2.3568873374956
scalar MyScenario.node[148].veinsmobility 	maxSpeed 	13.637675069319
scalar MyScenario.node[148].veinsmobility 	totalDistance 	364.98462731063
scalar MyScenario.node[148].veinsmobility 	totalCO2Emission 	133.91955367919
scalar MyScenario.node[84].appl 	generatedWSMs 	1
scalar MyScenario.node[84].appl 	receivedWSMs 	4
scalar MyScenario.node[84].appl 	generatedBSMs 	0
scalar MyScenario.node[84].appl 	receivedBSMs 	0
scalar MyScenario.node[84].appl 	generatedWSAs 	0
scalar MyScenario.node[84].appl 	receivedWSAs 	0
scalar MyScenario.node[84].nic.phy80211p 	busyTime 	0.00025031578947368
scalar MyScenario.node[84].nic.mac1609_4 	ReceivedUnicastPackets 	0
scalar MyScenario.node[84].nic.mac1609_4 	ReceivedBroadcasts 	4
scalar MyScenario.node[84].nic.mac1609_4 	SentPackets 	1
scalar MyScenario.node[84].nic.mac1609_4 	SNIRLostPackets 	37
scalar MyScenario.node[84].nic.mac1609_4 	RXTXLostPackets 	24
scalar MyScenario.node[84].nic.mac1609_4 	TotalLostPackets 	61
scalar MyScenario.node[84].nic.mac1609_4 	DroppedPacketsInMac 	0
scalar MyScenario.node[84].nic.mac1609_4 	TooLittleTime 	0
scalar MyScenario.node[84].nic.mac1609_4 	TimesIntoBackoff 	1
scalar MyScenario.node[84].nic.mac1609_4 	SlotsBackoff 	3
scalar MyScenario.node[84].nic.mac1609_4 	NumInternalContention 	0
scalar MyScenario.node[84].nic.mac1609_4 	totalBusyTime 	0.002321066689
scalar MyScenario.node[84].veinsmobility 	startTime 	1
scalar MyScenario.node[84].veinsmobility 	totalTime 	37
scalar MyScenario.node[84].veinsmobility 	stopTime 	39
scalar MyScenario.node[84].veinsmobility 	minSpeed 	1.3687242732616
scalar MyScenario.node[84].veinsmobility 	maxSpeed 	13.889376391447
scalar MyScenario.node[84].veinsmobility 	totalDistance 	373.34575113775
scalar MyScenario.node[84].veinsmobility 	totalCO2Emission 	138.83811789237
scalar MyScenario.node[50].appl 	generatedWSMs 	1
scalar MyScenario.node[50].appl 	receivedWSMs 	12
scalar MyScenario.node[50].appl 	generatedBSMs 	0
scalar MyScenario.node[50].appl 	receivedBSMs 	0
scalar MyScenario.node[50].appl 	generatedWSAs 	0
scalar MyScenario.node[50].appl 	receivedWSAs 	0
scalar MyScenario.node[50].nic.phy80211p 	busyTime 	0.00029148717948718
scalar MyScenario.node[50].nic.mac1609_4 	ReceivedUnicastPackets 	0
scalar MyScenario.node[50].nic.mac1609_4 	ReceivedBroadcasts 	12
scalar MyScenario.node[50].nic.mac1609_4 	SentPackets 	1
scalar MyScenario.node[50].nic.mac1609_4 	SNIRLostPackets 	37
scalar MyScenario.node[50].nic.mac1609_4 	RXTXLostPackets 	4
scalar MyScenario.node[50].nic.mac1609_4 	TotalLostPackets 	41
scalar MyScenario.node[50].nic.mac1609_4 	DroppedPacketsInMac 	0
scalar MyScenario.node[50].nic.mac1609_4 	TooLittleTime 	0
scalar MyScenario.node[50].nic.mac1609_4 	TimesIntoBackoff 	1
scalar MyScenario.node[50].nic.mac1609_4 	SlotsBackoff 	1
scalar MyScenario.node[50].nic.mac1609_4 	NumInternalContention 	0
scalar MyScenario.node[50].nic.mac1609_4 	totalBusyTime 	0.004873
scalar MyScenario.node[50].veinsmobility 	startTime 	1
scalar MyScenario.node[50].veinsmobility 	totalTime 	38
scalar MyScenario.node[50].veinsmobility 	stopTime 	40
scalar MyScenario.node[50].veinsmobility 	minSpeed 	1.490178719908
scalar MyScenario.node[50].veinsmobility 	maxSpeed 	13.87394309768
scalar MyScenario.node[50].veinsmobility 	totalDistance 	467.73048608883
scalar MyScenario.node[50].veinsmobility 	totalCO2Emission 	105.5522765161
scalar MyScenario.node[364].appl 	generatedWSMs 	0
scalar MyScenario.node[364].appl 	receivedWSMs 	0
scalar MyScenario.node[364].appl 	generatedBSMs 	0
scalar MyScenario.node[364].appl 	receivedBSMs 	0
scalar MyScenario.node[364].appl 	generatedWSAs 	0
scalar MyScenario.node[364].appl 	receivedWSAs 	0
scalar MyScenario.node[364].nic.phy80211p 	busyTime 	6.6285714285714e-06
scalar MyScenario.node[364].nic.mac1609_4 	ReceivedUnicastPackets 	0
scalar MyScenario.node[364].nic.mac1609_4 	ReceivedBroadcasts 	0
scalar MyScenario.node[364].nic.mac1609_4 	SentPackets 	0
scalar MyScenario.node[364].nic.mac1609_4 	SNIRLostPackets 	1
scalar MyScenario.node[364].nic.mac1609_4 	RXTXLostPackets 	0
scalar MyScenario.node[364].nic.mac1609_4 	TotalLostPackets 	1
scalar MyScenario.node[364].nic.mac1609_4 	DroppedPacketsInMac 	0
scalar MyScenario.node[364].nic.mac1609_4 	TooLittleTime 	0
scalar MyScenario.node[364].nic.mac1609_4 	TimesIntoBackoff 	0
scalar MyScenario.node[364].nic.mac1609_4 	SlotsBackoff 	0
scalar MyScenario.node[364].nic.mac1609_4 	NumInternalContention 	0
scalar MyScenario.node[364].nic.mac1609_4 	totalBusyTime 	0.000232
scalar MyScenario.node[364].veinsmobility 	startTime 	7
scalar MyScenario.node[364].veinsmobility 	totalTime 	34
scalar MyScenario.node[364].veinsmobility 	stopTime 	42
scalar MyScenario.node[364].veinsmobility 	minSpeed 	1.9524666956859
scalar MyScenario.node[364].veinsmobility 	maxSpeed 	13.865382675966
scalar MyScenario.node[364].veinsmobility 	totalDistance 	370.94071914841
scalar MyScenario.node[364].veinsmobility 	totalCO2Emission 	107.27495907519
scalar MyScenario.node[34].appl 	generatedWSMs 	1
scalar MyScenario.node[34].appl 	receivedWSMs 	5
scalar MyScenario.node[34].appl 	generatedBSMs 	0
scalar MyScenario.node[34].appl 	receivedBSMs 	0
scalar MyScenario.node[34].appl 	generatedWSAs 	0
scalar MyScenario.node[34].appl 	receivedWSAs 	0
scalar MyScenario.node[34].nic.phy80211p 	busyTime 	0.00035082926829268
scalar MyScenario.node[34].nic.mac1609_4 	ReceivedUnicastPackets 	0
scalar MyScenario.node[34].nic.mac1609_4 	ReceivedBroadcasts 	5
scalar MyScenario.node[34].nic.mac1609_4 	SentPackets 	1
scalar MyScenario.node[34].nic.mac1609_4 	SNIRLostPackets 	57
scalar MyScenario.node[34].nic.mac1609_4 	RXTXLostPackets 	30
scalar MyScenario.node[34].nic.mac1609_4 	TotalLostPackets 	87
scalar MyScenario.node[34].nic.mac1609_4 	DroppedPacketsInMac 	0
scalar MyScenario.node[34].nic.mac1609_4 	TooLittleTime 	0
scalar MyScenario.node[34].nic.mac1609_4 	TimesIntoBackoff 	1
scalar MyScenario.node[34].nic.mac1609_4 	SlotsBackoff 	1
scalar MyScenario.node[34].nic.mac1609_4 	NumInternalContention 	0
scalar MyScenario.node[34].nic.mac1609_4 	totalBusyTime 	0.003017791766
scalar MyScenario.node[34].veinsmobility 	startTime 	1
scalar MyScenario.node[34].veinsmobility 	totalTime 	40
scalar MyScenario.node[34].veinsmobility 	stopTime 	42
scalar MyScenario.node[34].veinsmobility 	minSpeed 	1.7852469932521
scalar MyScenario.node[34].veinsmobility 	maxSpeed 	13.874236493721
scalar MyScenario.node[34].veinsmobility 	totalDistance 	484.10376397667
scalar MyScenario.node[34].veinsmobility 	totalCO2Emission 	102.89444786668
scalar MyScenario.node[202].appl 	generatedWSMs 	0
scalar MyScenario.node[202].appl 	receivedWSMs 	0
scalar MyScenario.node[202].appl 	generatedBSMs 	0
scalar MyScenario.node[202].appl 	receivedBSMs 	0
scalar MyScenario.node[202].appl 	generatedWSAs 	0
scalar MyScenario.node[202].appl 	receivedWSAs 	0
scalar MyScenario.node[202].nic.phy80211p 	busyTime 	0
scalar MyScenario.node[202].nic.mac1609_4 	ReceivedUnicastPackets 	0
scalar MyScenario.node[202].nic.mac1609_4 	ReceivedBroadcasts 	0
scalar MyScenario.node[202].nic.mac1609_4 	SentPackets 	0
scalar MyScenario.node[202].nic.mac1609_4 	SNIRLostPackets 	0
scalar MyScenario.node[202].nic.mac1609_4 	RXTXLostPackets 	0
scalar MyScenario.node[202].nic.mac1609_4 	TotalLostPackets 	0
scalar MyScenario.node[202].nic.mac1609_4 	DroppedPacketsInMac 	0
scalar MyScenario.node[202].nic.mac1609_4 	TooLittleTime 	0
scalar MyScenario.node[202].nic.mac1609_4 	TimesIntoBackoff 	0
scalar MyScenario.node[202].nic.mac1609_4 	SlotsBackoff 	0
scalar MyScenario.node[202].nic.mac1609_4 	NumInternalContention 	0
scalar MyScenario.node[202].nic.mac1609_4 	totalBusyTime 	0
scalar MyScenario.node[202].veinsmobility 	startTime 	1
scalar MyScenario.node[202].veinsmobility 	totalTime 	40
scalar MyScenario.node[202].veinsmobility 	stopTime 	42
scalar MyScenario.node[202].veinsmobility 	minSpeed 	2.1554835203337
scalar MyScenario.node[202].veinsmobility 	maxSpeed 	13.888951890543
scalar MyScenario.node[202].veinsmobility 	totalDistance 	472.3534775969
scalar MyScenario.node[202].veinsmobility 	totalCO2Emission 	113.84616477144
scalar MyScenario.node[63].appl 	generatedWSMs 	1
scalar MyScenario.node[63].appl 	receivedWSMs 	17
scalar MyScenario.node[63].appl 	generatedBSMs 	0
scalar MyScenario.node[63].appl 	receivedBSMs 	0
scalar MyScenario.node[63].appl 	generatedWSAs 	0
scalar MyScenario.node[63].appl 	receivedWSAs 	0
scalar MyScenario.node[63].nic.phy80211p 	busyTime 	0.00025409523809524
scalar MyScenario.node[63].nic.mac1609_4 	ReceivedUnicastPackets 	0
scalar MyScenario.node[63].nic.mac1609_4 	ReceivedBroadcasts 	17
scalar MyScenario.node[63].nic.mac1609_4 	SentPackets 	1
scalar MyScenario.node[63].nic.mac1609_4 	SNIRLostPackets 	29
scalar MyScenario.node[63].nic.mac1609_4 	RXTXLostPackets 	21
scalar MyScenario.node[63].nic.mac1609_4 	TotalLostPackets 	50
scalar MyScenario.node[63].nic.mac1609_4 	DroppedPacketsInMac 	0
scalar MyScenario.node[63].nic.mac1609_4 	TooLittleTime 	0
scalar MyScenario.node[63].nic.mac1609_4 	TimesIntoBackoff 	1
scalar MyScenario.node[63].nic.mac1609_4 	SlotsBackoff 	0
scalar MyScenario.node[63].nic.mac1609_4 	NumInternalContention 	0
scalar MyScenario.node[63].nic.mac1609_4 	totalBusyTime 	0.006033083846
scalar MyScenario.node[63].veinsmobility 	startTime 	1
scalar MyScenario.node[63].veinsmobility 	totalTime 	41
scalar MyScenario.node[63].veinsmobility 	stopTime 	43
scalar MyScenario.node[63].veinsmobility 	minSpeed 	1.5933575005736
scalar MyScenario.node[63].veinsmobility 	maxSpeed 	13.87140885354
scalar MyScenario.node[63].veinsmobility 	totalDistance 	460.98110352183
scalar MyScenario.node[63].veinsmobility 	totalCO2Emission 	120.79562555805
scalar MyScenario.node[142].appl 	generatedWSMs 	1
scalar MyScenario.node[142].appl 	receivedWSMs 	4
scalar MyScenario.node[142].appl 	generatedBSMs 	0
scalar MyScenario.node[142].appl 	receivedBSMs 	0
scalar MyScenario.node[142].appl 	generatedWSAs 	0
scalar MyScenario.node[142].appl 	receivedWSAs 	0
scalar MyScenario.node[142].nic.phy80211p 	busyTime 	0.00032372093023256
scalar MyScenario.node[142].nic.mac1609_4 	ReceivedUnicastPackets 	0
scalar MyScenario.node[142].nic.mac1609_4 	ReceivedBroadcasts 	4
scalar MyScenario.node[142].nic.mac1609_4 	SentPackets 	1
scalar MyScenario.node[142].nic.mac1609_4 	SNIRLostPackets 	56
scalar MyScenario.node[142].nic.mac1609_4 	RXTXLostPackets 	18
scalar MyScenario.node[142].nic.mac1609_4 	TotalLostPackets 	74
scalar MyScenario.node[142].nic.mac1609_4 	DroppedPacketsInMac 	0
scalar MyScenario.node[142].nic.mac1609_4 	TooLittleTime 	0
scalar MyScenario.node[142].nic.mac1609_4 	TimesIntoBackoff 	1
scalar MyScenario.node[142].nic.mac1609_4 	SlotsBackoff 	2
scalar MyScenario.node[142].nic.mac1609_4 	NumInternalContention 	0
scalar MyScenario.node[142].nic.mac1609_4 	totalBusyTime 	0.003017254552
scalar MyScenario.node[142].veinsmobility 	startTime 	1
scalar MyScenario.node[142].veinsmobility 	totalTime 	42
scalar MyScenario.node[142].veinsmobility 	stopTime 	44
scalar MyScenario.node[142].veinsmobility 	minSpeed 	0.39562376057135
scalar MyScenario.node[142].veinsmobility 	maxSpeed 	13.80612047133
scalar MyScenario.node[142].veinsmobility 	totalDistance 	375.70444642378
scalar MyScenario.node[142].veinsmobility 	totalCO2Emission 	111.66764401955
scalar MyScenario.node[36].appl 	generatedWSMs 	1
scalar MyScenario.node[36].appl 	receivedWSMs 	11
scalar MyScenario.node[36].appl 	generatedBSMs 	0
scalar MyScenario.node[36].appl 	receivedBSMs 	0
scalar MyScenario.node[36].appl 	generatedWSAs 	0
scalar MyScenario.node[36].appl 	receivedWSAs 	0
scalar MyScenario.node[36].nic.phy80211p 	busyTime 	0.00027945454545455
scalar MyScenario.node[36].nic.mac1609_4 	ReceivedUnicastPackets 	0
scalar MyScenario.node[36].nic.mac1609_4 	ReceivedBroadcasts 	11
scalar MyScenario.node[36].nic.mac1609_4 	SentPackets 	1
scalar MyScenario.node[36].nic.mac1609_4 	SNIRLostPackets 	42
scalar MyScenario.node[36].nic.mac1609_4 	RXTXLostPackets 	21
scalar MyScenario.node[36].nic.mac1609_4 	TotalLostPackets 	63
scalar MyScenario.node[36].nic.mac1609_4 	DroppedPacketsInMac 	0
scalar MyScenario.node[36].nic.mac1609_4 	TooLittleTime 	0
scalar MyScenario.node[36].nic.mac1609_4 	TimesIntoBackoff 	1
scalar MyScenario.node[36].nic.mac1609_4 	SlotsBackoff 	3
scalar MyScenario.node[36].nic.mac1609_4 	NumInternalContention 	0
scalar MyScenario.node[36].nic.mac1609_4 	totalBusyTime 	0.00556904941
scalar MyScenario.node[36].veinsmobility 	startTime 	1
scalar MyScenario.node[36].veinsmobility 	totalTime 	43
scalar MyScenario.node[36].veinsmobility 	stopTime 	45
scalar MyScenario.node[36].veinsmobility 	minSpeed 	2.4377467040438
scalar MyScenario.node[36].veinsmobility 	maxSpeed 	13.818155082478
scalar MyScenario.node[36].veinsmobility 	totalDistance 	482.70473629518
scalar MyScenario.node[36].veinsmobility 	totalCO2Emission 	124.28913275577
scalar MyScenario.node[7].appl 	generatedWSMs 	0
scalar MyScenario.node[7].appl 	receivedWSMs 	0
scalar MyScenario.node[7].appl 	generatedBSMs 	0
scalar MyScenario.node[7].appl 	receivedBSMs 	0
scalar MyScenario.node[7].appl 	generatedWSAs 	0
scalar MyScenario.node[7].appl 	receivedWSAs 	0
scalar MyScenario.node[7].nic.phy80211p 	busyTime 	2.6363636363636e-05
scalar MyScenario.node[7].nic.mac1609_4 	ReceivedUnicastPackets 	0
scalar MyScenario.node[7].nic.mac1609_4 	ReceivedBroadcasts 	0
scalar MyScenario.node[7].nic.mac1609_4 	SentPackets 	0
scalar MyScenario.node[7].nic.mac1609_4 	SNIRLostPackets 	5
scalar MyScenario.node[7].nic.mac1609_4 	RXTXLostPackets 	0
scalar MyScenario.node[7].nic.mac1609_4 	TotalLostPackets 	5
scalar MyScenario.node[7].nic.mac1609_4 	DroppedPacketsInMac 	0
scalar MyScenario.node[7].nic.mac1609_4 	TooLittleTime 	0
scalar MyScenario.node[7].nic.mac1609_4 	TimesIntoBackoff 	0
scalar MyScenario.node[7].nic.mac1609_4 	SlotsBackoff 	0
scalar MyScenario.node[7].nic.mac1609_4 	NumInternalContention 	0
scalar MyScenario.node[7].nic.mac1609_4 	totalBusyTime 	0.000696
scalar MyScenario.node[7].veinsmobility 	startTime 	1
scalar MyScenario.node[7].veinsmobility 	totalTime 	43
scalar MyScenario.node[7].veinsmobility 	stopTime 	45
scalar MyScenario.node[7].veinsmobility 	minSpeed 	2.2800970564131
scalar MyScenario.node[7].veinsmobility 	maxSpeed 	13.899720041128
scalar MyScenario.node[7].veinsmobility 	totalDistance 	475.15291419157
scalar MyScenario.node[7].veinsmobility 	totalCO2Emission 	152.34525564312
scalar MyScenario.node[219].appl 	generatedWSMs 	1
scalar MyScenario.node[219].appl 	receivedWSMs 	9
scalar MyScenario.node[219].appl 	generatedBSMs 	0
scalar MyScenario.node[219].appl 	receivedBSMs 	0
scalar MyScenario.node[219].appl 	generatedWSAs 	0
scalar MyScenario.node[219].appl 	receivedWSAs 	0
scalar MyScenario.node[219].nic.phy80211p 	busyTime 	0.00015982222222222
scalar MyScenario.node[219].nic.mac1609_4 	ReceivedUnicastPackets 	0
scalar MyScenario.node[219].nic.mac1609_4 	ReceivedBroadcasts 	9
scalar MyScenario.node[219].nic.mac1609_4 	SentPackets 	1
scalar MyScenario.node[219].nic.mac1609_4 	SNIRLostPackets 	22
scalar MyScenario.node[219].nic.mac1609_4 	RXTXLostPackets 	19
scalar MyScenario.node[219].nic.mac1609_4 	TotalLostPackets 	41
scalar MyScenario.node[219].nic.mac1609_4 	DroppedPacketsInMac 	0
scalar MyScenario.node[219].nic.mac1609_4 	TooLittleTime 	0
scalar MyScenario.node[219].nic.mac1609_4 	TimesIntoBackoff 	1
scalar MyScenario.node[219].nic.mac1609_4 	SlotsBackoff 	1
scalar MyScenario.node[219].nic.mac1609_4 	NumInternalContention 	0
scalar MyScenario.node[219].nic.mac1609_4 	totalBusyTime 	0.003713092829
scalar MyScenario.node[219].veinsmobility 	startTime 	1
scalar MyScenario.node[219].veinsmobility 	totalTime 	44
scalar MyScenario.node[219].veinsmobility 	stopTime 	46
scalar MyScenario.node[219].veinsmobility 	minSpeed 	0.9004333698792
scalar MyScenario.node[219].veinsmobility 	maxSpeed 	13.880716357799
scalar MyScenario.node[219].veinsmobility 	totalDistance 	481.17091350214
scalar MyScenario.node[219].veinsmobility 	totalCO2Emission 	136.51607470435
scalar MyScenario.node[238].appl 	generatedWSMs 	1
scalar MyScenario.node[238].appl 	receivedWSMs 	16
scalar MyScenario.node[238].appl 	generatedBSMs 	0
scalar MyScenario.node[238].appl 	receivedBSMs 	0
scalar MyScenario.node[238].appl 	generatedWSAs 	0
scalar MyScenario.node[238].appl 	receivedWSAs 	0
scalar MyScenario.node[238].nic.phy80211p 	busyTime 	0.00023752380952381
scalar MyScenario.node[238].nic.mac1609_4 	ReceivedUnicastPackets 	0
scalar MyScenario.node[238].nic.mac1609_4 	ReceivedBroadcasts 	16
scalar MyScenario.node[238].nic.mac1609_4 	SentPackets 	1
scalar MyScenario.node[238].nic.mac1609_4 	SNIRLostPackets 	27
scalar MyScenario.node[238].nic.mac1609_4 	RXTXLostPackets 	10
scalar MyScenario.node[238].nic.mac1609_4 	TotalLostPackets 	37
scalar MyScenario.node[238].nic.mac1609_4 	DroppedPacketsInMac 	0
scalar MyScenario.node[238].nic.mac1609_4 	TooLittleTime 	0
scalar MyScenario.node[238].nic.mac1609_4 	TimesIntoBackoff 	1
scalar MyScenario.node[238].nic.mac1609_4 	SlotsBackoff 	2
scalar MyScenario.node[238].nic.mac1609_4 	NumInternalContention 	0
scalar MyScenario.node[238].nic.mac1609_4 	totalBusyTime 	0.006497
scalar MyScenario.node[238].veinsmobility 	startTime 	4
scalar MyScenario.node[238].veinsmobility 	totalTime 	41
scalar MyScenario.node[238].veinsmobility 	stopTime 	46
scalar MyScenario.node[238].veinsmobility 	minSpeed 	1.7227476480417
scalar MyScenario.node[238].veinsmobility 	maxSpeed 	13.846374151274
scalar MyScenario.node[238].veinsmobility 	totalDistance 	481.35309877357
scalar MyScenario.node[238].veinsmobility 	totalCO2Emission 	120.34198318233
scalar MyScenario.node[320].appl 	generatedWSMs 	0
scalar MyScenario.node[320].appl 	receivedWSMs 	0
scalar MyScenario.node[320].appl 	generatedBSMs 	0
scalar MyScenario.node[320].appl 	receivedBSMs 	0
scalar MyScenario.node[320].appl 	generatedWSAs 	0
scalar MyScenario.node[320].appl 	receivedWSAs 	0
scalar MyScenario.node[320].nic.phy80211p 	busyTime 	8.8380952380952e-05
scalar MyScenario.node[320].nic.mac1609_4 	ReceivedUnicastPackets 	0
scalar MyScenario.node[320].nic.mac1609_4 	ReceivedBroadcasts 	0
scalar MyScenario.node[320].nic.mac1609_4 	SentPackets 	0
scalar MyScenario.node[320].nic.mac1609_4 	SNIRLostPackets 	16
scalar MyScenario.node[320].nic.mac1609_4 	RXTXLostPackets 	0
scalar MyScenario.node[320].nic.mac1609_4 	TotalLostPackets 	16
scalar MyScenario.node[320].nic.mac1609_4 	DroppedPacketsInMac 	0
scalar MyScenario.node[320].nic.mac1609_4 	TooLittleTime 	0
scalar MyScenario.node[320].nic.mac1609_4 	TimesIntoBackoff 	0
scalar MyScenario.node[320].nic.mac1609_4 	SlotsBackoff 	0
scalar MyScenario.node[320].nic.mac1609_4 	NumInternalContention 	0
scalar MyScenario.node[320].nic.mac1609_4 	totalBusyTime 	0.000232
scalar MyScenario.node[320].veinsmobility 	startTime 	4
scalar MyScenario.node[320].veinsmobility 	totalTime 	41
scalar MyScenario.node[320].veinsmobility 	stopTime 	46
scalar MyScenario.node[320].veinsmobility 	minSpeed 	2.4142970725195
scalar MyScenario.node[320].veinsmobility 	maxSpeed 	13.747429305804
scalar MyScenario.node[320].veinsmobility 	totalDistance 	472.67642138231
scalar MyScenario.node[320].veinsmobility 	totalCO2Emission 	122.01252988819
scalar MyScenario.node[258].appl 	generatedWSMs 	1
scalar MyScenario.node[258].appl 	receivedWSMs 	1
scalar MyScenario.node[258].appl 	generatedBSMs 	0
scalar MyScenario.node[258].appl 	receivedBSMs 	0
scalar MyScenario.node[258].appl 	generatedWSAs 	0
scalar MyScenario.node[258].appl 	receivedWSAs 	0
scalar MyScenario.node[258].nic.phy80211p 	busyTime 	0.00014027906976744
scalar MyScenario.node[258].nic.mac1609_4 	ReceivedUnicastPackets 	0
scalar MyScenario.node[258].nic.mac1609_4 	ReceivedBroadcasts 	1
scalar MyScenario.node[258].nic.mac1609_4 	SentPackets 	1
scalar MyScenario.node[258].nic.mac1609_4 	SNIRLostPackets 	25
scalar MyScenario.node[258].nic.mac1609_4 	RXTXLostPackets 	20
scalar MyScenario.node[258].nic.mac1609_4 	TotalLostPackets 	45
scalar MyScenario.node[258].nic.mac1609_4 	DroppedPacketsInMac 	0
scalar MyScenario.node[258].nic.mac1609_4 	TooLittleTime 	0
scalar MyScenario.node[258].nic.mac1609_4 	TimesIntoBackoff 	1
scalar MyScenario.node[258].nic.mac1609_4 	SlotsBackoff 	1
scalar MyScenario.node[258].nic.mac1609_4 	NumInternalContention 	0
scalar MyScenario.node[258].nic.mac1609_4 	totalBusyTime 	0.003017013783
scalar MyScenario.node[258].veinsmobility 	startTime 	4
scalar MyScenario.node[258].veinsmobility 	totalTime 	42
scalar MyScenario.node[258].veinsmobility 	stopTime 	47
scalar MyScenario.node[258].veinsmobility 	minSpeed 	1.1228430511925
scalar MyScenario.node[258].veinsmobility 	maxSpeed 	13.872853118833
scalar MyScenario.node[258].veinsmobility 	totalDistance 	480.32438163511
scalar MyScenario.node[258].veinsmobility 	totalCO2Emission 	136.08006378886
scalar MyScenario.node[252].appl 	generatedWSMs 	1
scalar MyScenario.node[252].appl 	receivedWSMs 	8
scalar MyScenario.node[252].appl 	generatedBSMs 	0
scalar MyScenario.node[252].appl 	receivedBSMs 	0
scalar MyScenario.node[252].appl 	generatedWSAs 	0
scalar MyScenario.node[252].appl 	receivedWSAs 	0
scalar MyScenario.node[252].nic.phy80211p 	busyTime 	0.00028595348837209
scalar MyScenario.node[252].nic.mac1609_4 	ReceivedUnicastPackets 	0
scalar MyScenario.node[252].nic.mac1609_4 	ReceivedBroadcasts 	8
scalar MyScenario.node[252].nic.mac1609_4 	SentPackets 	1
scalar MyScenario.node[252].nic.mac1609_4 	SNIRLostPackets 	45
scalar MyScenario.node[252].nic.mac1609_4 	RXTXLostPackets 	1
scalar MyScenario.node[252].nic.mac1609_4 	TotalLostPackets 	46
scalar MyScenario.node[252].nic.mac1609_4 	DroppedPacketsInMac 	0
scalar MyScenario.node[252].nic.mac1609_4 	TooLittleTime 	0
scalar MyScenario.node[252].nic.mac1609_4 	TimesIntoBackoff 	1
scalar MyScenario.node[252].nic.mac1609_4 	SlotsBackoff 	0
scalar MyScenario.node[252].nic.mac1609_4 	NumInternalContention 	0
scalar MyScenario.node[252].nic.mac1609_4 	totalBusyTime 	0.004177072585
scalar MyScenario.node[252].veinsmobility 	startTime 	4
scalar MyScenario.node[252].veinsmobility 	totalTime 	42
scalar MyScenario.node[252].veinsmobility 	stopTime 	47
scalar MyScenario.node[252].veinsmobility 	minSpeed 	2.2481765488861
scalar MyScenario.node[252].veinsmobility 	maxSpeed 	13.806156913983
scalar MyScenario.node[252].veinsmobility 	totalDistance 	477.53856263701
scalar MyScenario.node[252].veinsmobility 	totalCO2Emission 	135.65472917511
scalar MyScenario.node[249].appl 	generatedWSMs 	1
scalar MyScenario.node[249].appl 	receivedWSMs 	6
scalar MyScenario.node[249].appl 	generatedBSMs 	0
scalar MyScenario.node[249].appl 	receivedBSMs 	0
scalar MyScenario.node[249].appl 	generatedWSAs 	0
scalar MyScenario.node[249].appl 	receivedWSAs 	0
scalar MyScenario.node[249].nic.phy80211p 	busyTime 	0.000232
scalar MyScenario.node[249].nic.mac1609_4 	ReceivedUnicastPackets 	0
scalar MyScenario.node[249].nic.mac1609_4 	ReceivedBroadcasts 	6
scalar MyScenario.node[249].nic.mac1609_4 	SentPackets 	1
scalar MyScenario.node[249].nic.mac1609_4 	SNIRLostPackets 	38
scalar MyScenario.node[249].nic.mac1609_4 	RXTXLostPackets 	5
scalar MyScenario.node[249].nic.mac1609_4 	TotalLostPackets 	43
scalar MyScenario.node[249].nic.mac1609_4 	DroppedPacketsInMac 	0
scalar MyScenario.node[249].nic.mac1609_4 	TooLittleTime 	0
scalar MyScenario.node[249].nic.mac1609_4 	TimesIntoBackoff 	1
scalar MyScenario.node[249].nic.mac1609_4 	SlotsBackoff 	3
scalar MyScenario.node[249].nic.mac1609_4 	NumInternalContention 	0
scalar MyScenario.node[249].nic.mac1609_4 	totalBusyTime 	0.004409039901
scalar MyScenario.node[249].veinsmobility 	startTime 	4
scalar MyScenario.node[249].veinsmobility 	totalTime 	43
scalar MyScenario.node[249].veinsmobility 	stopTime 	48
scalar MyScenario.node[249].veinsmobility 	minSpeed 	1.9046066010197e-09
scalar MyScenario.node[249].veinsmobility 	maxSpeed 	13.65758005965
scalar MyScenario.node[249].veinsmobility 	totalDistance 	281.17112757226
scalar MyScenario.node[249].veinsmobility 	totalCO2Emission 	126.99890782523
scalar MyScenario.node[389].appl 	generatedWSMs 	0
scalar MyScenario.node[389].appl 	receivedWSMs 	0
scalar MyScenario.node[389].appl 	generatedBSMs 	0
scalar MyScenario.node[389].appl 	receivedBSMs 	0
scalar MyScenario.node[389].appl 	generatedWSAs 	0
scalar MyScenario.node[389].appl 	receivedWSAs 	0
scalar MyScenario.node[389].nic.phy80211p 	busyTime 	0.00016302702702703
scalar MyScenario.node[389].nic.mac1609_4 	ReceivedUnicastPackets 	0
scalar MyScenario.node[389].nic.mac1609_4 	ReceivedBroadcasts 	0
scalar MyScenario.node[389].nic.mac1609_4 	SentPackets 	0
scalar MyScenario.node[389].nic.mac1609_4 	SNIRLostPackets 	26
scalar MyScenario.node[389].nic.mac1609_4 	RXTXLostPackets 	0
scalar MyScenario.node[389].nic.mac1609_4 	TotalLostPackets 	26
scalar MyScenario.node[389].nic.mac1609_4 	DroppedPacketsInMac 	0
scalar MyScenario.node[389].nic.mac1609_4 	TooLittleTime 	0
scalar MyScenario.node[389].nic.mac1609_4 	TimesIntoBackoff 	0
scalar MyScenario.node[389].nic.mac1609_4 	SlotsBackoff 	0
scalar MyScenario.node[389].nic.mac1609_4 	NumInternalContention 	0
scalar MyScenario.node[389].nic.mac1609_4 	totalBusyTime 	0.00116
scalar MyScenario.node[389].veinsmobility 	startTime 	12
scalar MyScenario.node[389].veinsmobility 	totalTime 	36
scalar MyScenario.node[389].veinsmobility 	stopTime 	49
scalar MyScenario.node[389].veinsmobility 	minSpeed 	12.62766349481
scalar MyScenario.node[389].veinsmobility 	maxSpeed 	13.757504167617
scalar MyScenario.node[389].veinsmobility 	totalDistance 	476.44940452644
scalar MyScenario.node[389].veinsmobility 	totalCO2Emission 	82.068111732976
scalar MyScenario.node[19].appl 	generatedWSMs 	1
scalar MyScenario.node[19].appl 	receivedWSMs 	3
scalar MyScenario.node[19].appl 	generatedBSMs 	0
scalar MyScenario.node[19].appl 	receivedBSMs 	0
scalar MyScenario.node[19].appl 	generatedWSAs 	0
scalar MyScenario.node[19].appl 	receivedWSAs 	0
scalar MyScenario.node[19].nic.phy80211p 	busyTime 	9.6666666666667e-05
scalar MyScenario.node[19].nic.mac1609_4 	ReceivedUnicastPackets 	0
scalar MyScenario.node[19].nic.mac1609_4 	ReceivedBroadcasts 	3
scalar MyScenario.node[19].nic.mac1609_4 	SentPackets 	1
scalar MyScenario.node[19].nic.mac1609_4 	SNIRLostPackets 	17
scalar MyScenario.node[19].nic.mac1609_4 	RXTXLostPackets 	1
scalar MyScenario.node[19].nic.mac1609_4 	TotalLostPackets 	18
scalar MyScenario.node[19].nic.mac1609_4 	DroppedPacketsInMac 	0
scalar MyScenario.node[19].nic.mac1609_4 	TooLittleTime 	0
scalar MyScenario.node[19].nic.mac1609_4 	TimesIntoBackoff 	1
scalar MyScenario.node[19].nic.mac1609_4 	SlotsBackoff 	0
scalar MyScenario.node[19].nic.mac1609_4 	NumInternalContention 	0
scalar MyScenario.node[19].nic.mac1609_4 	totalBusyTime 	0.002553
scalar MyScenario.node[19].veinsmobility 	startTime 	1
scalar MyScenario.node[19].veinsmobility 	totalTime 	47
scalar MyScenario.node[19].veinsmobility 	stopTime 	49
scalar MyScenario.node[19].veinsmobility 	minSpeed 	1.1169394357183
scalar MyScenario.node[19].veinsmobility 	maxSpeed 	13.759502763487
scalar MyScenario.node[19].veinsmobility 	totalDistance 	471.97219922819
scalar MyScenario.node[19].veinsmobility 	totalCO2Emission 	165.70272983248
scalar MyScenario.node[17].appl 	generatedWSMs 	1
scalar MyScenario.node[17].appl 	receivedWSMs 	3
scalar MyScenario.node[17].appl 	generatedBSMs 	0
scalar MyScenario.node[17].appl 	receivedBSMs 	0
scalar MyScenario.node[17].appl 	generatedWSAs 	0
scalar MyScenario.node[17].appl 	receivedWSAs 	0
scalar MyScenario.node[17].nic.phy80211p 	busyTime 	0.00016571428571429
scalar MyScenario.node[17].nic.mac1609_4 	ReceivedUnicastPackets 	0
scalar MyScenario.node[17].nic.mac1609_4 	ReceivedBroadcasts 	3
scalar MyScenario.node[17].nic.mac1609_4 	SentPackets 	1
scalar MyScenario.node[17].nic.mac1609_4 	SNIRLostPackets 	32
scalar MyScenario.node[17].nic.mac1609_4 	RXTXLostPackets 	2
scalar MyScenario.node[17].nic.mac1609_4 	TotalLostPackets 	34
scalar MyScenario.node[17].nic.mac1609_4 	DroppedPacketsInMac 	0
scalar MyScenario.node[17].nic.mac1609_4 	TooLittleTime 	0
scalar MyScenario.node[17].nic.mac1609_4 	TimesIntoBackoff 	1
scalar MyScenario.node[17].nic.mac1609_4 	SlotsBackoff 	0
scalar MyScenario.node[17].nic.mac1609_4 	NumInternalContention 	0
scalar MyScenario.node[17].nic.mac1609_4 	totalBusyTime 	0.001625115294
scalar MyScenario.node[17].veinsmobility 	startTime 	1
scalar MyScenario.node[17].veinsmobility 	totalTime 	48
scalar MyScenario.node[17].veinsmobility 	stopTime 	50
scalar MyScenario.node[17].veinsmobility 	minSpeed 	0.00069318055295145
scalar MyScenario.node[17].veinsmobility 	maxSpeed 	13.869630613434
scalar MyScenario.node[17].veinsmobility 	totalDistance 	466.81306829682
scalar MyScenario.node[17].veinsmobility 	totalCO2Emission 	136.4003500305
scalar MyScenario.node[144].appl 	generatedWSMs 	1
scalar MyScenario.node[144].appl 	receivedWSMs 	3
scalar MyScenario.node[144].appl 	generatedBSMs 	0
scalar MyScenario.node[144].appl 	receivedBSMs 	0
scalar MyScenario.node[144].appl 	generatedWSAs 	0
scalar MyScenario.node[144].appl 	receivedWSAs 	0
scalar MyScenario.node[144].nic.phy80211p 	busyTime 	0.00022726530612245
scalar MyScenario.node[144].nic.mac1609_4 	ReceivedUnicastPackets 	0
scalar MyScenario.node[144].nic.mac1609_4 	ReceivedBroadcasts 	3
scalar MyScenario.node[144].nic.mac1609_4 	SentPackets 	1
scalar MyScenario.node[144].nic.mac1609_4 	SNIRLostPackets 	45
scalar MyScenario.node[144].nic.mac1609_4 	RXTXLostPackets 	24
scalar MyScenario.node[144].nic.mac1609_4 	TotalLostPackets 	69
scalar MyScenario.node[144].nic.mac1609_4 	DroppedPacketsInMac 	0
scalar MyScenario.node[144].nic.mac1609_4 	TooLittleTime 	0
scalar MyScenario.node[144].nic.mac1609_4 	TimesIntoBackoff 	1
scalar MyScenario.node[144].nic.mac1609_4 	SlotsBackoff 	0
scalar MyScenario.node[144].nic.mac1609_4 	NumInternalContention 	0
scalar MyScenario.node[144].nic.mac1609_4 	totalBusyTime 	0.003481215717
scalar MyScenario.node[144].veinsmobility 	startTime 	1
scalar MyScenario.node[144].veinsmobility 	totalTime 	48
scalar MyScenario.node[144].veinsmobility 	stopTime 	50
scalar MyScenario.node[144].veinsmobility 	minSpeed 	1.597605318483
scalar MyScenario.node[144].veinsmobility 	maxSpeed 	13.870960949734
scalar MyScenario.node[144].veinsmobility 	totalDistance 	563.63633589486
scalar MyScenario.node[144].veinsmobility 	totalCO2Emission 	147.03787989972
scalar MyScenario.node[118].appl 	generatedWSMs 	0
scalar MyScenario.node[118].appl 	receivedWSMs 	0
scalar MyScenario.node[118].appl 	generatedBSMs 	0
scalar MyScenario.node[118].appl 	receivedBSMs 	0
scalar MyScenario.node[118].appl 	generatedWSAs 	0
scalar MyScenario.node[118].appl 	receivedWSAs 	0
scalar MyScenario.node[118].nic.phy80211p 	busyTime 	7.1020408163265e-05
scalar MyScenario.node[118].nic.mac1609_4 	ReceivedUnicastPackets 	0
scalar MyScenario.node[118].nic.mac1609_4 	ReceivedBroadcasts 	0
scalar MyScenario.node[118].nic.mac1609_4 	SentPackets 	0
scalar MyScenario.node[118].nic.mac1609_4 	SNIRLostPackets 	15
scalar MyScenario.node[118].nic.mac1609_4 	RXTXLostPackets 	0
scalar MyScenario.node[118].nic.mac1609_4 	TotalLostPackets 	15
scalar MyScenario.node[118].nic.mac1609_4 	DroppedPacketsInMac 	0
scalar MyScenario.node[118].nic.mac1609_4 	TooLittleTime 	0
scalar MyScenario.node[118].nic.mac1609_4 	TimesIntoBackoff 	0
scalar MyScenario.node[118].nic.mac1609_4 	SlotsBackoff 	0
scalar MyScenario.node[118].nic.mac1609_4 	NumInternalContention 	0
scalar MyScenario.node[118].nic.mac1609_4 	totalBusyTime 	0.000232
scalar MyScenario.node[118].veinsmobility 	startTime 	1
scalar MyScenario.node[118].veinsmobility 	totalTime 	48
scalar MyScenario.node[118].veinsmobility 	stopTime 	50
scalar MyScenario.node[118].veinsmobility 	minSpeed 	0.57100902431984
scalar MyScenario.node[118].veinsmobility 	maxSpeed 	13.848272390617
scalar MyScenario.node[118].veinsmobility 	totalDistance 	478.77428102389
scalar MyScenario.node[118].veinsmobility 	totalCO2Emission 	182.29384664688
scalar MyScenario.node[99].appl 	generatedWSMs 	1
scalar MyScenario.node[99].appl 	receivedWSMs 	1
scalar MyScenario.node[99].appl 	generatedBSMs 	0
scalar MyScenario.node[99].appl 	receivedBSMs 	0
scalar MyScenario.node[99].appl 	generatedWSAs 	0
scalar MyScenario.node[99].appl 	receivedWSAs 	0
scalar MyScenario.node[99].nic.phy80211p 	busyTime 	0.00013730612244898
scalar MyScenario.node[99].nic.mac1609_4 	ReceivedUnicastPackets 	0
scalar MyScenario.node[99].nic.mac1609_4 	ReceivedBroadcasts 	1
scalar MyScenario.node[99].nic.mac1609_4 	SentPackets 	1
scalar MyScenario.node[99].nic.mac1609_4 	SNIRLostPackets 	28
scalar MyScenario.node[99].nic.mac1609_4 	RXTXLostPackets 	27
scalar MyScenario.node[99].nic.mac1609_4 	TotalLostPackets 	55
scalar MyScenario.node[99].nic.mac1609_4 	DroppedPacketsInMac 	0
scalar MyScenario.node[99].nic.mac1609_4 	TooLittleTime 	0
scalar MyScenario.node[99].nic.mac1609_4 	TimesIntoBackoff 	1
scalar MyScenario.node[99].nic.mac1609_4 	SlotsBackoff 	3
scalar MyScenario.node[99].nic.mac1609_4 	NumInternalContention 	0
scalar MyScenario.node[99].nic.mac1609_4 	totalBusyTime 	0.001393448242
scalar MyScenario.node[99].veinsmobility 	startTime 	1
scalar MyScenario.node[99].veinsmobility 	totalTime 	48
scalar MyScenario.node[99].veinsmobility 	stopTime 	50
scalar MyScenario.node[99].veinsmobility 	minSpeed 	1.4560356836766
scalar MyScenario.node[99].veinsmobility 	maxSpeed 	13.879054709058
scalar MyScenario.node[99].veinsmobility 	totalDistance 	574.82170384035
scalar MyScenario.node[99].veinsmobility 	totalCO2Emission 	142.59819639605
scalar MyScenario.node[98].appl 	generatedWSMs 	1
scalar MyScenario.node[98].appl 	receivedWSMs 	1
scalar MyScenario.node[98].appl 	generatedBSMs 	0
scalar MyScenario.node[98].appl 	receivedBSMs 	0
scalar MyScenario.node[98].appl 	generatedWSAs 	0
scalar MyScenario.node[98].appl 	receivedWSAs 	0
scalar MyScenario.node[98].nic.phy80211p 	busyTime 	7.888e-05
scalar MyScenario.node[98].nic.mac1609_4 	ReceivedUnicastPackets 	0
scalar MyScenario.node[98].nic.mac1609_4 	ReceivedBroadcasts 	1
scalar MyScenario.node[98].nic.mac1609_4 	SentPackets 	1
scalar MyScenario.node[98].nic.mac1609_4 	SNIRLostPackets 	16
scalar MyScenario.node[98].nic.mac1609_4 	RXTXLostPackets 	24
scalar MyScenario.node[98].nic.mac1609_4 	TotalLostPackets 	40
scalar MyScenario.node[98].nic.mac1609_4 	DroppedPacketsInMac 	0
scalar MyScenario.node[98].nic.mac1609_4 	TooLittleTime 	0
scalar MyScenario.node[98].nic.mac1609_4 	TimesIntoBackoff 	1
scalar MyScenario.node[98].nic.mac1609_4 	SlotsBackoff 	0
scalar MyScenario.node[98].nic.mac1609_4 	NumInternalContention 	0
scalar MyScenario.node[98].nic.mac1609_4 	totalBusyTime 	0.001625023086
scalar MyScenario.node[98].veinsmobility 	startTime 	1
scalar MyScenario.node[98].veinsmobility 	totalTime 	49
scalar MyScenario.node[98].veinsmobility 	stopTime 	51
scalar MyScenario.node[98].veinsmobility 	minSpeed 	1.5009835837409
scalar MyScenario.node[98].veinsmobility 	maxSpeed 	13.879665598995
scalar MyScenario.node[98].veinsmobility 	totalDistance 	557.27655616653
scalar MyScenario.node[98].veinsmobility 	totalCO2Emission 	151.41862610917
scalar MyScenario.node[150].appl 	generatedWSMs 	0
scalar MyScenario.node[150].appl 	receivedWSMs 	0
scalar MyScenario.node[150].appl 	generatedBSMs 	0
scalar MyScenario.node[150].appl 	receivedBSMs 	0
scalar MyScenario.node[150].appl 	generatedWSAs 	0
scalar MyScenario.node[150].appl 	receivedWSAs 	0
scalar MyScenario.node[150].nic.phy80211p 	busyTime 	6.96e-05
scalar MyScenario.node[150].nic.mac1609_4 	ReceivedUnicastPackets 	0
scalar MyScenario.node[150].nic.mac1609_4 	ReceivedBroadcasts 	0
scalar MyScenario.node[150].nic.mac1609_4 	SentPackets 	0
scalar MyScenario.node[150].nic.mac1609_4 	SNIRLostPackets 	15
scalar MyScenario.node[150].nic.mac1609_4 	RXTXLostPackets 	0
scalar MyScenario.node[150].nic.mac1609_4 	TotalLostPackets 	15
scalar MyScenario.node[150].nic.mac1609_4 	DroppedPacketsInMac 	0
scalar MyScenario.node[150].nic.mac1609_4 	TooLittleTime 	0
scalar MyScenario.node[150].nic.mac1609_4 	TimesIntoBackoff 	0
scalar MyScenario.node[150].nic.mac1609_4 	SlotsBackoff 	0
scalar MyScenario.node[150].nic.mac1609_4 	NumInternalContention 	0
scalar MyScenario.node[150].nic.mac1609_4 	totalBusyTime 	0.000464
scalar MyScenario.node[150].veinsmobility 	startTime 	1
scalar MyScenario.node[150].veinsmobility 	totalTime 	49
scalar MyScenario.node[150].veinsmobility 	stopTime 	51
scalar MyScenario.node[150].veinsmobility 	minSpeed 	0.00017589975263236
scalar MyScenario.node[150].veinsmobility 	maxSpeed 	13.702856727224
scalar MyScenario.node[150].veinsmobility 	totalDistance 	374.88159440291
scalar MyScenario.node[150].veinsmobility 	totalCO2Emission 	144.9041417415
scalar MyScenario.node[107].appl 	generatedWSMs 	0
scalar MyScenario.node[107].appl 	receivedWSMs 	0
scalar MyScenario.node[107].appl 	generatedBSMs 	0
scalar MyScenario.node[107].appl 	receivedBSMs 	0
scalar MyScenario.node[107].appl 	generatedWSAs 	0
scalar MyScenario.node[107].appl 	receivedWSAs 	0
scalar MyScenario.node[107].nic.phy80211p 	busyTime 	5.568e-05
scalar MyScenario.node[107].nic.mac1609_4 	ReceivedUnicastPackets 	0
scalar MyScenario.node[107].nic.mac1609_4 	ReceivedBroadcasts 	0
scalar MyScenario.node[107].nic.mac1609_4 	SentPackets 	0
scalar MyScenario.node[107].nic.mac1609_4 	SNIRLostPackets 	12
scalar MyScenario.node[107].nic.mac1609_4 	RXTXLostPackets 	0
scalar MyScenario.node[107].nic.mac1609_4 	TotalLostPackets 	12
scalar MyScenario.node[107].nic.mac1609_4 	DroppedPacketsInMac 	0
scalar MyScenario.node[107].nic.mac1609_4 	TooLittleTime 	0
scalar MyScenario.node[107].nic.mac1609_4 	TimesIntoBackoff 	0
scalar MyScenario.node[107].nic.mac1609_4 	SlotsBackoff 	0
scalar MyScenario.node[107].nic.mac1609_4 	NumInternalContention 	0
scalar MyScenario.node[107].nic.mac1609_4 	totalBusyTime 	0.000232
scalar MyScenario.node[107].veinsmobility 	startTime 	1
scalar MyScenario.node[107].veinsmobility 	totalTime 	49
scalar MyScenario.node[107].veinsmobility 	stopTime 	51
scalar MyScenario.node[107].veinsmobility 	minSpeed 	0.023074718283599
scalar MyScenario.node[107].veinsmobility 	maxSpeed 	13.84169171236
scalar MyScenario.node[107].veinsmobility 	totalDistance 	473.30323069989
scalar MyScenario.node[107].veinsmobility 	totalCO2Emission 	151.2877987363
scalar MyScenario.node[4].appl 	generatedWSMs 	1
scalar MyScenario.node[4].appl 	receivedWSMs 	3
scalar MyScenario.node[4].appl 	generatedBSMs 	0
scalar MyScenario.node[4].appl 	receivedBSMs 	0
scalar MyScenario.node[4].appl 	generatedWSAs 	0
scalar MyScenario.node[4].appl 	receivedWSAs 	0
scalar MyScenario.node[4].nic.phy80211p 	busyTime 	0.000116
scalar MyScenario.node[4].nic.mac1609_4 	ReceivedUnicastPackets 	0
scalar MyScenario.node[4].nic.mac1609_4 	ReceivedBroadcasts 	3
scalar MyScenario.node[4].nic.mac1609_4 	SentPackets 	1
scalar MyScenario.node[4].nic.mac1609_4 	SNIRLostPackets 	22
scalar MyScenario.node[4].nic.mac1609_4 	RXTXLostPackets 	29
scalar MyScenario.node[4].nic.mac1609_4 	TotalLostPackets 	51
scalar MyScenario.node[4].nic.mac1609_4 	DroppedPacketsInMac 	0
scalar MyScenario.node[4].nic.mac1609_4 	TooLittleTime 	0
scalar MyScenario.node[4].nic.mac1609_4 	TimesIntoBackoff 	1
scalar MyScenario.node[4].nic.mac1609_4 	SlotsBackoff 	2
scalar MyScenario.node[4].nic.mac1609_4 	NumInternalContention 	0
scalar MyScenario.node[4].nic.mac1609_4 	totalBusyTime 	0.001625105534
scalar MyScenario.node[4].veinsmobility 	startTime 	1
scalar MyScenario.node[4].veinsmobility 	totalTime 	49
scalar MyScenario.node[4].veinsmobility 	stopTime 	51
scalar MyScenario.node[4].veinsmobility 	minSpeed 	1.5833135245135
scalar MyScenario.node[4].veinsmobility 	maxSpeed 	13.768330507795
scalar MyScenario.node[4].veinsmobility 	totalDistance 	569.41744581315
scalar MyScenario.node[4].veinsmobility 	totalCO2Emission 	153.24831043712
scalar MyScenario.node[81].appl 	generatedWSMs 	1
scalar MyScenario.node[81].appl 	receivedWSMs 	6
scalar MyScenario.node[81].appl 	generatedBSMs 	0
scalar MyScenario.node[81].appl 	receivedBSMs 	0
scalar MyScenario.node[81].appl 	generatedWSAs 	0
scalar MyScenario.node[81].appl 	receivedWSAs 	0
scalar MyScenario.node[81].nic.phy80211p 	busyTime 	0.00021835294117647
scalar MyScenario.node[81].nic.mac1609_4 	ReceivedUnicastPackets 	0
scalar MyScenario.node[81].nic.mac1609_4 	ReceivedBroadcasts 	6
scalar MyScenario.node[81].nic.mac1609_4 	SentPackets 	1
scalar MyScenario.node[81].nic.mac1609_4 	SNIRLostPackets 	42
scalar MyScenario.node[81].nic.mac1609_4 	RXTXLostPackets 	4
scalar MyScenario.node[81].nic.mac1609_4 	TotalLostPackets 	46
scalar MyScenario.node[81].nic.mac1609_4 	DroppedPacketsInMac 	0
scalar MyScenario.node[81].nic.mac1609_4 	TooLittleTime 	0
scalar MyScenario.node[81].nic.mac1609_4 	TimesIntoBackoff 	1
scalar MyScenario.node[81].nic.mac1609_4 	SlotsBackoff 	1
scalar MyScenario.node[81].nic.mac1609_4 	NumInternalContention 	0
scalar MyScenario.node[81].nic.mac1609_4 	totalBusyTime 	0.004409000329
scalar MyScenario.node[81].veinsmobility 	startTime 	1
scalar MyScenario.node[81].veinsmobility 	totalTime 	50
scalar MyScenario.node[81].veinsmobility 	stopTime 	52
scalar MyScenario.node[81].veinsmobility 	minSpeed 	1.6467791881179
scalar MyScenario.node[81].veinsmobility 	maxSpeed 	13.884734186251
scalar MyScenario.node[81].veinsmobility 	totalDistance 	573.5111121461
scalar MyScenario.node[81].veinsmobility 	totalCO2Emission 	145.44191531741
scalar MyScenario.node[209].appl 	generatedWSMs 	1
scalar MyScenario.node[209].appl 	receivedWSMs 	11
scalar MyScenario.node[209].appl 	generatedBSMs 	0
scalar MyScenario.node[209].appl 	receivedBSMs 	0
scalar MyScenario.node[209].appl 	generatedWSAs 	0
scalar MyScenario.node[209].appl 	receivedWSAs 	0
scalar MyScenario.node[209].nic.phy80211p 	busyTime 	0.00019630769230769
scalar MyScenario.node[209].nic.mac1609_4 	ReceivedUnicastPackets 	0
scalar MyScenario.node[209].nic.mac1609_4 	ReceivedBroadcasts 	11
[...]
scalar MyScenario.node[266].nic.mac1609_4 	DroppedPacketsInMac 	0
scalar MyScenario.node[266].nic.mac1609_4 	TooLittleTime 	0
scalar MyScenario.node[266].nic.mac1609_4 	TimesIntoBackoff 	1
scalar MyScenario.node[266].nic.mac1609_4 	SlotsBackoff 	1
scalar MyScenario.node[266].nic.mac1609_4 	NumInternalContention 	0
scalar MyScenario.node[266].nic.mac1609_4 	totalBusyTime 	0.003481090488
scalar MyScenario.node[266].veinsmobility 	startTime 	4
scalar MyScenario.node[266].veinsmobility 	totalTime 	188
scalar MyScenario.node[266].veinsmobility 	stopTime 	193
scalar MyScenario.node[266].veinsmobility 	minSpeed 	2.3975306104256e-15
scalar MyScenario.node[266].veinsmobility 	maxSpeed 	13.839971639449
scalar MyScenario.node[266].veinsmobility 	totalDistance 	868.96615171119
scalar MyScenario.node[266].veinsmobility 	totalCO2Emission 	411.97557949988
scalar MyScenario.node[171].appl 	generatedWSMs 	1
scalar MyScenario.node[171].appl 	receivedWSMs 	11
scalar MyScenario.node[171].appl 	generatedBSMs 	0
scalar MyScenario.node[171].appl 	receivedBSMs 	0
scalar MyScenario.node[171].appl 	generatedWSAs 	0
scalar MyScenario.node[171].appl 	receivedWSAs 	0
scalar MyScenario.node[171].nic.phy80211p 	busyTime 	3.7072164948454e-05
scalar MyScenario.node[171].nic.mac1609_4 	ReceivedUnicastPackets 	0
scalar MyScenario.node[171].nic.mac1609_4 	ReceivedBroadcasts 	11
scalar MyScenario.node[171].nic.mac1609_4 	SentPackets 	1
scalar MyScenario.node[171].nic.mac1609_4 	SNIRLostPackets 	20
scalar MyScenario.node[171].nic.mac1609_4 	RXTXLostPackets 	13
scalar MyScenario.node[171].nic.mac1609_4 	TotalLostPackets 	33
scalar MyScenario.node[171].nic.mac1609_4 	DroppedPacketsInMac 	0
scalar MyScenario.node[171].nic.mac1609_4 	TooLittleTime 	0
scalar MyScenario.node[171].nic.mac1609_4 	TimesIntoBackoff 	1
scalar MyScenario.node[171].nic.mac1609_4 	SlotsBackoff 	2
scalar MyScenario.node[171].nic.mac1609_4 	NumInternalContention 	0
scalar MyScenario.node[171].nic.mac1609_4 	totalBusyTime 	0.004409043553
scalar MyScenario.node[171].veinsmobility 	startTime 	1
scalar MyScenario.node[171].veinsmobility 	totalTime 	193
scalar MyScenario.node[171].veinsmobility 	stopTime 	195
scalar MyScenario.node[171].veinsmobility 	minSpeed 	0
scalar MyScenario.node[171].veinsmobility 	maxSpeed 	13.89472256517
scalar MyScenario.node[171].veinsmobility 	totalDistance 	967.76068588325
scalar MyScenario.node[171].veinsmobility 	totalCO2Emission 	445.0295920298
scalar MyScenario.node[100].appl 	generatedWSMs 	1
scalar MyScenario.node[100].appl 	receivedWSMs 	18
scalar MyScenario.node[100].appl 	generatedBSMs 	0
scalar MyScenario.node[100].appl 	receivedBSMs 	0
scalar MyScenario.node[100].appl 	generatedWSAs 	0
scalar MyScenario.node[100].appl 	receivedWSAs 	0
scalar MyScenario.node[100].nic.phy80211p 	busyTime 	6.7815384615385e-05
scalar MyScenario.node[100].nic.mac1609_4 	ReceivedUnicastPackets 	0
scalar MyScenario.node[100].nic.mac1609_4 	ReceivedBroadcasts 	18
scalar MyScenario.node[100].nic.mac1609_4 	SentPackets 	1
scalar MyScenario.node[100].nic.mac1609_4 	SNIRLostPackets 	39
scalar MyScenario.node[100].nic.mac1609_4 	RXTXLostPackets 	19
scalar MyScenario.node[100].nic.mac1609_4 	TotalLostPackets 	58
scalar MyScenario.node[100].nic.mac1609_4 	DroppedPacketsInMac 	0
scalar MyScenario.node[100].nic.mac1609_4 	TooLittleTime 	0
scalar MyScenario.node[100].nic.mac1609_4 	TimesIntoBackoff 	1
scalar MyScenario.node[100].nic.mac1609_4 	SlotsBackoff 	3
scalar MyScenario.node[100].nic.mac1609_4 	NumInternalContention 	0
scalar MyScenario.node[100].nic.mac1609_4 	totalBusyTime 	0.006961087367
scalar MyScenario.node[100].veinsmobility 	startTime 	1
scalar MyScenario.node[100].veinsmobility 	totalTime 	194
scalar MyScenario.node[100].veinsmobility 	stopTime 	196
scalar MyScenario.node[100].veinsmobility 	minSpeed 	0
scalar MyScenario.node[100].veinsmobility 	maxSpeed 	13.799155254988
scalar MyScenario.node[100].veinsmobility 	totalDistance 	957.35753070734
scalar MyScenario.node[100].veinsmobility 	totalCO2Emission 	442.63227316402
scalar MyScenario.node[261].appl 	generatedWSMs 	1
scalar MyScenario.node[261].appl 	receivedWSMs 	11
scalar MyScenario.node[261].appl 	generatedBSMs 	0
scalar MyScenario.node[261].appl 	receivedBSMs 	0
scalar MyScenario.node[261].appl 	generatedWSAs 	0
scalar MyScenario.node[261].appl 	receivedWSAs 	0
scalar MyScenario.node[261].nic.phy80211p 	busyTime 	6.0103626943005e-05
scalar MyScenario.node[261].nic.mac1609_4 	ReceivedUnicastPackets 	0
scalar MyScenario.node[261].nic.mac1609_4 	ReceivedBroadcasts 	11
scalar MyScenario.node[261].nic.mac1609_4 	SentPackets 	1
scalar MyScenario.node[261].nic.mac1609_4 	SNIRLostPackets 	39
scalar MyScenario.node[261].nic.mac1609_4 	RXTXLostPackets 	1
scalar MyScenario.node[261].nic.mac1609_4 	TotalLostPackets 	40
scalar MyScenario.node[261].nic.mac1609_4 	DroppedPacketsInMac 	0
scalar MyScenario.node[261].nic.mac1609_4 	TooLittleTime 	0
scalar MyScenario.node[261].nic.mac1609_4 	TimesIntoBackoff 	1
scalar MyScenario.node[261].nic.mac1609_4 	SlotsBackoff 	3
scalar MyScenario.node[261].nic.mac1609_4 	NumInternalContention 	0
scalar MyScenario.node[261].nic.mac1609_4 	totalBusyTime 	0.004177087801
scalar MyScenario.node[261].veinsmobility 	startTime 	4
scalar MyScenario.node[261].veinsmobility 	totalTime 	192
scalar MyScenario.node[261].veinsmobility 	stopTime 	197
scalar MyScenario.node[261].veinsmobility 	minSpeed 	0
scalar MyScenario.node[261].veinsmobility 	maxSpeed 	13.847531819623
scalar MyScenario.node[261].veinsmobility 	totalDistance 	875.59434888171
scalar MyScenario.node[261].veinsmobility 	totalCO2Emission 	403.35316273907
scalar MyScenario.node[308].appl 	generatedWSMs 	1
scalar MyScenario.node[308].appl 	receivedWSMs 	12
scalar MyScenario.node[308].appl 	generatedBSMs 	0
scalar MyScenario.node[308].appl 	receivedBSMs 	0
scalar MyScenario.node[308].appl 	generatedWSAs 	0
scalar MyScenario.node[308].appl 	receivedWSAs 	0
scalar MyScenario.node[308].nic.phy80211p 	busyTime 	4.2072538860104e-05
scalar MyScenario.node[308].nic.mac1609_4 	ReceivedUnicastPackets 	0
scalar MyScenario.node[308].nic.mac1609_4 	ReceivedBroadcasts 	12
scalar MyScenario.node[308].nic.mac1609_4 	SentPackets 	1
scalar MyScenario.node[308].nic.mac1609_4 	SNIRLostPackets 	23
scalar MyScenario.node[308].nic.mac1609_4 	RXTXLostPackets 	4
scalar MyScenario.node[308].nic.mac1609_4 	TotalLostPackets 	27
scalar MyScenario.node[308].nic.mac1609_4 	DroppedPacketsInMac 	0
scalar MyScenario.node[308].nic.mac1609_4 	TooLittleTime 	0
scalar MyScenario.node[308].nic.mac1609_4 	TimesIntoBackoff 	1
scalar MyScenario.node[308].nic.mac1609_4 	SlotsBackoff 	1
scalar MyScenario.node[308].nic.mac1609_4 	NumInternalContention 	0
scalar MyScenario.node[308].nic.mac1609_4 	totalBusyTime 	0.005337074149
scalar MyScenario.node[308].veinsmobility 	startTime 	4
scalar MyScenario.node[308].veinsmobility 	totalTime 	192
scalar MyScenario.node[308].veinsmobility 	stopTime 	197
scalar MyScenario.node[308].veinsmobility 	minSpeed 	1.4020034303573e-13
scalar MyScenario.node[308].veinsmobility 	maxSpeed 	13.830181261268
scalar MyScenario.node[308].veinsmobility 	totalDistance 	1462.5587144203
scalar MyScenario.node[308].veinsmobility 	totalCO2Emission 	503.98254094623
scalar MyScenario.node[65].appl 	generatedWSMs 	0
scalar MyScenario.node[65].appl 	receivedWSMs 	0
scalar MyScenario.node[65].appl 	generatedBSMs 	0
scalar MyScenario.node[65].appl 	receivedBSMs 	0
scalar MyScenario.node[65].appl 	generatedWSAs 	0
scalar MyScenario.node[65].appl 	receivedWSAs 	0
scalar MyScenario.node[65].nic.phy80211p 	busyTime 	0
scalar MyScenario.node[65].nic.mac1609_4 	ReceivedUnicastPackets 	0
scalar MyScenario.node[65].nic.mac1609_4 	ReceivedBroadcasts 	0
scalar MyScenario.node[65].nic.mac1609_4 	SentPackets 	0
scalar MyScenario.node[65].nic.mac1609_4 	SNIRLostPackets 	0
scalar MyScenario.node[65].nic.mac1609_4 	RXTXLostPackets 	0
scalar MyScenario.node[65].nic.mac1609_4 	TotalLostPackets 	0
scalar MyScenario.node[65].nic.mac1609_4 	DroppedPacketsInMac 	0
scalar MyScenario.node[65].nic.mac1609_4 	TooLittleTime 	0
scalar MyScenario.node[65].nic.mac1609_4 	TimesIntoBackoff 	0
scalar MyScenario.node[65].nic.mac1609_4 	SlotsBackoff 	0
scalar MyScenario.node[65].nic.mac1609_4 	NumInternalContention 	0
scalar MyScenario.node[65].nic.mac1609_4 	totalBusyTime 	0
scalar MyScenario.node[65].veinsmobility 	startTime 	1
scalar MyScenario.node[65].veinsmobility 	totalTime 	195
scalar MyScenario.node[65].veinsmobility 	stopTime 	197
scalar MyScenario.node[65].veinsmobility 	minSpeed 	0.00028442355432441
scalar MyScenario.node[65].veinsmobility 	maxSpeed 	13.836258668313
scalar MyScenario.node[65].veinsmobility 	totalDistance 	1671.6764064422
scalar MyScenario.node[65].veinsmobility 	totalCO2Emission 	555.51476737797
scalar MyScenario.node[401].appl 	generatedWSMs 	0
scalar MyScenario.node[401].appl 	receivedWSMs 	0
scalar MyScenario.node[401].appl 	generatedBSMs 	0
scalar MyScenario.node[401].appl 	receivedBSMs 	0
scalar MyScenario.node[401].appl 	generatedWSAs 	0
scalar MyScenario.node[401].appl 	receivedWSAs 	0
scalar MyScenario.node[401].nic.phy80211p 	busyTime 	3.2584269662921e-05
scalar MyScenario.node[401].nic.mac1609_4 	ReceivedUnicastPackets 	0
scalar MyScenario.node[401].nic.mac1609_4 	ReceivedBroadcasts 	0
scalar MyScenario.node[401].nic.mac1609_4 	SentPackets 	0
scalar MyScenario.node[401].nic.mac1609_4 	SNIRLostPackets 	25
scalar MyScenario.node[401].nic.mac1609_4 	RXTXLostPackets 	0
scalar MyScenario.node[401].nic.mac1609_4 	TotalLostPackets 	25
scalar MyScenario.node[401].nic.mac1609_4 	DroppedPacketsInMac 	0
scalar MyScenario.node[401].nic.mac1609_4 	TooLittleTime 	0
scalar MyScenario.node[401].nic.mac1609_4 	TimesIntoBackoff 	0
scalar MyScenario.node[401].nic.mac1609_4 	SlotsBackoff 	0
scalar MyScenario.node[401].nic.mac1609_4 	NumInternalContention 	0
scalar MyScenario.node[401].nic.mac1609_4 	totalBusyTime 	0.000696
scalar MyScenario.node[401].veinsmobility 	startTime 	20
scalar MyScenario.node[401].veinsmobility 	totalTime 	177
scalar MyScenario.node[401].veinsmobility 	stopTime 	198
scalar MyScenario.node[401].veinsmobility 	minSpeed 	1.0570895121404e-07
scalar MyScenario.node[401].veinsmobility 	maxSpeed 	13.88664107013
scalar MyScenario.node[401].veinsmobility 	totalDistance 	1472.6575311675
scalar MyScenario.node[401].veinsmobility 	totalCO2Emission 	484.44340822141
scalar MyScenario.node[91].appl 	generatedWSMs 	1
scalar MyScenario.node[91].appl 	receivedWSMs 	18
scalar MyScenario.node[91].appl 	generatedBSMs 	0
scalar MyScenario.node[91].appl 	receivedBSMs 	0
scalar MyScenario.node[91].appl 	generatedWSAs 	0
scalar MyScenario.node[91].appl 	receivedWSAs 	0
scalar MyScenario.node[91].nic.phy80211p 	busyTime 	7.3447236180904e-05
scalar MyScenario.node[91].nic.mac1609_4 	ReceivedUnicastPackets 	0
scalar MyScenario.node[91].nic.mac1609_4 	ReceivedBroadcasts 	18
scalar MyScenario.node[91].nic.mac1609_4 	SentPackets 	1
scalar MyScenario.node[91].nic.mac1609_4 	SNIRLostPackets 	45
scalar MyScenario.node[91].nic.mac1609_4 	RXTXLostPackets 	20
scalar MyScenario.node[91].nic.mac1609_4 	TotalLostPackets 	65
scalar MyScenario.node[91].nic.mac1609_4 	DroppedPacketsInMac 	0
scalar MyScenario.node[91].nic.mac1609_4 	TooLittleTime 	0
scalar MyScenario.node[91].nic.mac1609_4 	TimesIntoBackoff 	1
scalar MyScenario.node[91].nic.mac1609_4 	SlotsBackoff 	0
scalar MyScenario.node[91].nic.mac1609_4 	NumInternalContention 	0
scalar MyScenario.node[91].nic.mac1609_4 	totalBusyTime 	0.006729118615
scalar MyScenario.node[91].veinsmobility 	startTime 	1
scalar MyScenario.node[91].veinsmobility 	totalTime 	198
scalar MyScenario.node[91].veinsmobility 	stopTime 	200
scalar MyScenario.node[91].veinsmobility 	minSpeed 	0
scalar MyScenario.node[91].veinsmobility 	maxSpeed 	13.853952408093
scalar MyScenario.node[91].veinsmobility 	totalDistance 	980.16823836644
scalar MyScenario.node[91].veinsmobility 	totalCO2Emission 	432.24050933
scalar MyScenario.node[363].appl 	generatedWSMs 	1
scalar MyScenario.node[363].appl 	receivedWSMs 	13
scalar MyScenario.node[363].appl 	generatedBSMs 	0
scalar MyScenario.node[363].appl 	receivedBSMs 	0
scalar MyScenario.node[363].appl 	generatedWSAs 	0
scalar MyScenario.node[363].appl 	receivedWSAs 	0
scalar MyScenario.node[363].nic.phy80211p 	busyTime 	8.5969543147208e-05
scalar MyScenario.node[363].nic.mac1609_4 	ReceivedUnicastPackets 	0
scalar MyScenario.node[363].nic.mac1609_4 	ReceivedBroadcasts 	13
scalar MyScenario.node[363].nic.mac1609_4 	SentPackets 	1
scalar MyScenario.node[363].nic.mac1609_4 	SNIRLostPackets 	60
scalar MyScenario.node[363].nic.mac1609_4 	RXTXLostPackets 	5
scalar MyScenario.node[363].nic.mac1609_4 	TotalLostPackets 	65
scalar MyScenario.node[363].nic.mac1609_4 	DroppedPacketsInMac 	0
scalar MyScenario.node[363].nic.mac1609_4 	TooLittleTime 	0
scalar MyScenario.node[363].nic.mac1609_4 	TimesIntoBackoff 	1
scalar MyScenario.node[363].nic.mac1609_4 	SlotsBackoff 	0
scalar MyScenario.node[363].nic.mac1609_4 	NumInternalContention 	0
scalar MyScenario.node[363].nic.mac1609_4 	totalBusyTime 	0.005105000022
scalar MyScenario.node[363].veinsmobility 	startTime 	7
scalar MyScenario.node[363].veinsmobility 	totalTime 	196
scalar MyScenario.node[363].veinsmobility 	stopTime 	204
scalar MyScenario.node[363].veinsmobility 	minSpeed 	0
scalar MyScenario.node[363].veinsmobility 	maxSpeed 	13.827398511535
scalar MyScenario.node[363].veinsmobility 	totalDistance 	959.5379092331
scalar MyScenario.node[363].veinsmobility 	totalCO2Emission 	426.15177817979
scalar MyScenario.node[243].appl 	generatedWSMs 	1
scalar MyScenario.node[243].appl 	receivedWSMs 	11
scalar MyScenario.node[243].appl 	generatedBSMs 	0
scalar MyScenario.node[243].appl 	receivedBSMs 	0
scalar MyScenario.node[243].appl 	generatedWSAs 	0
scalar MyScenario.node[243].appl 	receivedWSAs 	0
scalar MyScenario.node[243].nic.phy80211p 	busyTime 	3.2819512195122e-05
scalar MyScenario.node[243].nic.mac1609_4 	ReceivedUnicastPackets 	0
scalar MyScenario.node[243].nic.mac1609_4 	ReceivedBroadcasts 	11
scalar MyScenario.node[243].nic.mac1609_4 	SentPackets 	1
scalar MyScenario.node[243].nic.mac1609_4 	SNIRLostPackets 	18
scalar MyScenario.node[243].nic.mac1609_4 	RXTXLostPackets 	6
scalar MyScenario.node[243].nic.mac1609_4 	TotalLostPackets 	24
scalar MyScenario.node[243].nic.mac1609_4 	DroppedPacketsInMac 	0
scalar MyScenario.node[243].nic.mac1609_4 	TooLittleTime 	0
scalar MyScenario.node[243].nic.mac1609_4 	TimesIntoBackoff 	1
scalar MyScenario.node[243].nic.mac1609_4 	SlotsBackoff 	3
scalar MyScenario.node[243].nic.mac1609_4 	NumInternalContention 	0
scalar MyScenario.node[243].nic.mac1609_4 	totalBusyTime 	0.004177015027
scalar MyScenario.node[243].veinsmobility 	startTime 	4
scalar MyScenario.node[243].veinsmobility 	totalTime 	204
scalar MyScenario.node[243].veinsmobility 	stopTime 	209
scalar MyScenario.node[243].veinsmobility 	minSpeed 	0
scalar MyScenario.node[243].veinsmobility 	maxSpeed 	13.866054542875
scalar MyScenario.node[243].veinsmobility 	totalDistance 	1069.0301986135
scalar MyScenario.node[243].veinsmobility 	totalCO2Emission 	484.9825545333
scalar MyScenario.node[355].appl 	generatedWSMs 	1
scalar MyScenario.node[355].appl 	receivedWSMs 	9
scalar MyScenario.node[355].appl 	generatedBSMs 	0
scalar MyScenario.node[355].appl 	receivedBSMs 	0
scalar MyScenario.node[355].appl 	generatedWSAs 	0
scalar MyScenario.node[355].appl 	receivedWSAs 	0
scalar MyScenario.node[355].nic.phy80211p 	busyTime 	2.0271844660194e-05
scalar MyScenario.node[355].nic.mac1609_4 	ReceivedUnicastPackets 	0
scalar MyScenario.node[355].nic.mac1609_4 	ReceivedBroadcasts 	9
scalar MyScenario.node[355].nic.mac1609_4 	SentPackets 	1
scalar MyScenario.node[355].nic.mac1609_4 	SNIRLostPackets 	9
scalar MyScenario.node[355].nic.mac1609_4 	RXTXLostPackets 	0
scalar MyScenario.node[355].nic.mac1609_4 	TotalLostPackets 	9
scalar MyScenario.node[355].nic.mac1609_4 	DroppedPacketsInMac 	0
scalar MyScenario.node[355].nic.mac1609_4 	TooLittleTime 	0
scalar MyScenario.node[355].nic.mac1609_4 	TimesIntoBackoff 	1
scalar MyScenario.node[355].nic.mac1609_4 	SlotsBackoff 	1
scalar MyScenario.node[355].nic.mac1609_4 	NumInternalContention 	0
scalar MyScenario.node[355].nic.mac1609_4 	totalBusyTime 	0.003017
scalar MyScenario.node[355].veinsmobility 	startTime 	7
scalar MyScenario.node[355].veinsmobility 	totalTime 	205
scalar MyScenario.node[355].veinsmobility 	stopTime 	213
scalar MyScenario.node[355].veinsmobility 	minSpeed 	0
scalar MyScenario.node[355].veinsmobility 	maxSpeed 	13.825848481432
scalar MyScenario.node[355].veinsmobility 	totalDistance 	1174.9276933071
scalar MyScenario.node[355].veinsmobility 	totalCO2Emission 	450.12539459637
scalar MyScenario.node[147].appl 	generatedWSMs 	1
scalar MyScenario.node[147].appl 	receivedWSMs 	20
scalar MyScenario.node[147].appl 	generatedBSMs 	0
scalar MyScenario.node[147].appl 	receivedBSMs 	0
scalar MyScenario.node[147].appl 	generatedWSAs 	0
scalar MyScenario.node[147].appl 	receivedWSAs 	0
scalar MyScenario.node[147].nic.phy80211p 	busyTime 	6.5281385281385e-05
scalar MyScenario.node[147].nic.mac1609_4 	ReceivedUnicastPackets 	0
scalar MyScenario.node[147].nic.mac1609_4 	ReceivedBroadcasts 	20
scalar MyScenario.node[147].nic.mac1609_4 	SentPackets 	1
scalar MyScenario.node[147].nic.mac1609_4 	SNIRLostPackets 	45
scalar MyScenario.node[147].nic.mac1609_4 	RXTXLostPackets 	11
scalar MyScenario.node[147].nic.mac1609_4 	TotalLostPackets 	56
scalar MyScenario.node[147].nic.mac1609_4 	DroppedPacketsInMac 	0
scalar MyScenario.node[147].nic.mac1609_4 	TooLittleTime 	0
scalar MyScenario.node[147].nic.mac1609_4 	TimesIntoBackoff 	1
scalar MyScenario.node[147].nic.mac1609_4 	SlotsBackoff 	1
scalar MyScenario.node[147].nic.mac1609_4 	NumInternalContention 	0
scalar MyScenario.node[147].nic.mac1609_4 	totalBusyTime 	0.006729
scalar MyScenario.node[147].veinsmobility 	startTime 	1
scalar MyScenario.node[147].veinsmobility 	totalTime 	230
scalar MyScenario.node[147].veinsmobility 	stopTime 	232
scalar MyScenario.node[147].veinsmobility 	minSpeed 	0
scalar MyScenario.node[147].veinsmobility 	maxSpeed 	13.896215665131
scalar MyScenario.node[147].veinsmobility 	totalDistance 	1368.2599754675
scalar MyScenario.node[147].veinsmobility 	totalCO2Emission 	519.061845849
scalar MyScenario.node[112].appl 	generatedWSMs 	1
scalar MyScenario.node[112].appl 	receivedWSMs 	14
scalar MyScenario.node[112].appl 	generatedBSMs 	0
scalar MyScenario.node[112].appl 	receivedBSMs 	0
scalar MyScenario.node[112].appl 	generatedWSAs 	0
scalar MyScenario.node[112].appl 	receivedWSAs 	0
scalar MyScenario.node[112].nic.phy80211p 	busyTime 	4.3186147186147e-05
scalar MyScenario.node[112].nic.mac1609_4 	ReceivedUnicastPackets 	0
scalar MyScenario.node[112].nic.mac1609_4 	ReceivedBroadcasts 	14
scalar MyScenario.node[112].nic.mac1609_4 	SentPackets 	1
scalar MyScenario.node[112].nic.mac1609_4 	SNIRLostPackets 	29
scalar MyScenario.node[112].nic.mac1609_4 	RXTXLostPackets 	19
scalar MyScenario.node[112].nic.mac1609_4 	TotalLostPackets 	48
scalar MyScenario.node[112].nic.mac1609_4 	DroppedPacketsInMac 	0
scalar MyScenario.node[112].nic.mac1609_4 	TooLittleTime 	0
scalar MyScenario.node[112].nic.mac1609_4 	TimesIntoBackoff 	1
scalar MyScenario.node[112].nic.mac1609_4 	SlotsBackoff 	1
scalar MyScenario.node[112].nic.mac1609_4 	NumInternalContention 	0
scalar MyScenario.node[112].nic.mac1609_4 	totalBusyTime 	0.004873017728
scalar MyScenario.node[112].veinsmobility 	startTime 	1
scalar MyScenario.node[112].veinsmobility 	totalTime 	231
scalar MyScenario.node[112].veinsmobility 	stopTime 	232
scalar MyScenario.node[112].veinsmobility 	minSpeed 	2.5061733360595e-15
scalar MyScenario.node[112].veinsmobility 	maxSpeed 	13.868520796043
scalar MyScenario.node[112].veinsmobility 	totalDistance 	1461.514516636
scalar MyScenario.node[112].veinsmobility 	totalCO2Emission 	562.67468929899
