version 2
run General-27-20170829-17:43:49-8100
attr configname General
attr datetime 20170829-17:43:49
attr density 300
attr experiment General
attr inifile omnetpp.ini
attr iterationvars $density=300
attr iterationvars2 "$density=300, $repetition=7"
attr measurement $density=300
attr network com.liborio.pi.MyScenario
attr processid 8100
attr repetition 7
attr replication #7
attr resultdir results
attr runnumber 27
attr seedset 7
param **.coreDebug false
param **.debug false
param *.**.nic.mac1609_4.bitrate 6Mbps
param *.**.nic.mac1609_4.txPower 20mW
param *.**.nic.mac1609_4.useServiceChannel true
param *.**.nic.phy80211p.analogueModels "xmldoc(\"config.xml\")"
param *.**.nic.phy80211p.antenna "xmldoc(\"antenna.xml\", \"/root/Antenna[@id='monopole']\")"
param *.**.nic.phy80211p.decider "xmldoc(\"config.xml\")"
param *.**.nic.phy80211p.sensitivity -84.39dBm
param *.**.nic.phy80211p.thermalNoise -110dBm
param *.**.nic.phy80211p.usePropagationDelay true
param *.**.nic.phy80211p.useThermalNoise true
param *.annotations.draw true
param *.connectionManager.drawMaxIntfDist false
param *.connectionManager.maxInterfDist 2600m
param *.connectionManager.sendDirect true
param *.manager.autoShutdown true
param *.manager.host "\"localhost\""
param *.manager.launchConfig "xmldoc(string(${density = 100, 200, 300, 400})+\"_\"+ string(${repetition})+\".launchd.xml\")"
param *.manager.port 9999
param *.manager.updateInterval 1s
param *.node[*].appl.beaconInterval 1s
param *.node[*].appl.dataOnSch true
param *.node[*].appl.headerLength "80 bit"
param *.node[*].appl.isSource false
param *.node[*].appl.numMsgs 100
param *.node[*].appl.sendBeacons false
param *.node[*].appl.stopTrafficTime 130s
param *.node[*].appl.wsmInterval 3s
param *.node[*].applType "\"Flooding\""
param *.node[*].veinsmobility.x 0
param *.node[*].veinsmobility.y 0
param *.node[*].veinsmobility.z 1.895
param *.node[*].veinsmobilityType.debug true
param *.node[0].appl.isSource true
param *.playgroundSizeX 2500m
param *.playgroundSizeY 2500m
param *.playgroundSizeZ 50m

scalar . 	density 	300
scalar MyScenario.node[57].appl 	generatedWSMs 	0
scalar MyScenario.node[57].appl 	receivedWSMs 	0
scalar MyScenario.node[57].appl 	generatedBSMs 	0
scalar MyScenario.node[57].appl 	receivedBSMs 	0
scalar MyScenario.node[57].appl 	generatedWSAs 	0
scalar MyScenario.node[57].appl 	receivedWSAs 	0
scalar MyScenario.node[57].nic.phy80211p 	busyTime 	0
scalar MyScenario.node[57].nic.mac1609_4 	ReceivedUnicastPackets 	0
scalar MyScenario.node[57].nic.mac1609_4 	ReceivedBroadcasts 	0
scalar MyScenario.node[57].nic.mac1609_4 	SentPackets 	0
scalar MyScenario.node[57].nic.mac1609_4 	SNIRLostPackets 	0
scalar MyScenario.node[57].nic.mac1609_4 	RXTXLostPackets 	0
scalar MyScenario.node[57].nic.mac1609_4 	TotalLostPackets 	0
scalar MyScenario.node[57].nic.mac1609_4 	DroppedPacketsInMac 	0
scalar MyScenario.node[57].nic.mac1609_4 	TooLittleTime 	0
scalar MyScenario.node[57].nic.mac1609_4 	TimesIntoBackoff 	0
scalar MyScenario.node[57].nic.mac1609_4 	SlotsBackoff 	0
scalar MyScenario.node[57].nic.mac1609_4 	NumInternalContention 	0
scalar MyScenario.node[57].nic.mac1609_4 	totalBusyTime 	0
scalar MyScenario.node[57].veinsmobility 	startTime 	1
scalar MyScenario.node[57].veinsmobility 	totalTime 	9
scalar MyScenario.node[57].veinsmobility 	stopTime 	11
scalar MyScenario.node[57].veinsmobility 	minSpeed 	2.327370282216
scalar MyScenario.node[57].veinsmobility 	maxSpeed 	13.721989849163
scalar MyScenario.node[57].veinsmobility 	totalDistance 	85.176046697376
scalar MyScenario.node[57].veinsmobility 	totalCO2Emission 	38.864082163399
scalar MyScenario.node[169].appl 	generatedWSMs 	0
scalar MyScenario.node[169].appl 	receivedWSMs 	0
scalar MyScenario.node[169].appl 	generatedBSMs 	0
scalar MyScenario.node[169].appl 	receivedBSMs 	0
scalar MyScenario.node[169].appl 	generatedWSAs 	0
scalar MyScenario.node[169].appl 	receivedWSAs 	0
scalar MyScenario.node[169].nic.phy80211p 	busyTime 	0
scalar MyScenario.node[169].nic.mac1609_4 	ReceivedUnicastPackets 	0
scalar MyScenario.node[169].nic.mac1609_4 	ReceivedBroadcasts 	0
scalar MyScenario.node[169].nic.mac1609_4 	SentPackets 	0
scalar MyScenario.node[169].nic.mac1609_4 	SNIRLostPackets 	0
scalar MyScenario.node[169].nic.mac1609_4 	RXTXLostPackets 	0
scalar MyScenario.node[169].nic.mac1609_4 	TotalLostPackets 	0
scalar MyScenario.node[169].nic.mac1609_4 	DroppedPacketsInMac 	0
scalar MyScenario.node[169].nic.mac1609_4 	TooLittleTime 	0
scalar MyScenario.node[169].nic.mac1609_4 	TimesIntoBackoff 	0
scalar MyScenario.node[169].nic.mac1609_4 	SlotsBackoff 	0
scalar MyScenario.node[169].nic.mac1609_4 	NumInternalContention 	0
scalar MyScenario.node[169].nic.mac1609_4 	totalBusyTime 	0
scalar MyScenario.node[169].veinsmobility 	startTime 	1
scalar MyScenario.node[169].veinsmobility 	totalTime 	9
scalar MyScenario.node[169].veinsmobility 	stopTime 	11
scalar MyScenario.node[169].veinsmobility 	minSpeed 	2.0412135718856
scalar MyScenario.node[169].veinsmobility 	maxSpeed 	13.871468594368
scalar MyScenario.node[169].veinsmobility 	totalDistance 	82.404897964885
scalar MyScenario.node[169].veinsmobility 	totalCO2Emission 	37.683639775922
scalar MyScenario.node[183].appl 	generatedWSMs 	1
scalar MyScenario.node[183].appl 	receivedWSMs 	1
scalar MyScenario.node[183].appl 	generatedBSMs 	0
scalar MyScenario.node[183].appl 	receivedBSMs 	0
scalar MyScenario.node[183].appl 	generatedWSAs 	0
scalar MyScenario.node[183].appl 	receivedWSAs 	0
scalar MyScenario.node[183].nic.phy80211p 	busyTime 	0.0004176
scalar MyScenario.node[183].nic.mac1609_4 	ReceivedUnicastPackets 	0
scalar MyScenario.node[183].nic.mac1609_4 	ReceivedBroadcasts 	1
scalar MyScenario.node[183].nic.mac1609_4 	SentPackets 	1
scalar MyScenario.node[183].nic.mac1609_4 	SNIRLostPackets 	17
scalar MyScenario.node[183].nic.mac1609_4 	RXTXLostPackets 	5
scalar MyScenario.node[183].nic.mac1609_4 	TotalLostPackets 	22
scalar MyScenario.node[183].nic.mac1609_4 	DroppedPacketsInMac 	0
scalar MyScenario.node[183].nic.mac1609_4 	TooLittleTime 	0
scalar MyScenario.node[183].nic.mac1609_4 	TimesIntoBackoff 	1
scalar MyScenario.node[183].nic.mac1609_4 	SlotsBackoff 	1
scalar MyScenario.node[183].nic.mac1609_4 	NumInternalContention 	0
scalar MyScenario.node[183].nic.mac1609_4 	totalBusyTime 	0.001393017559
scalar MyScenario.node[183].veinsmobility 	startTime 	1
scalar MyScenario.node[183].veinsmobility 	totalTime 	9
scalar MyScenario.node[183].veinsmobility 	stopTime 	11
scalar MyScenario.node[183].veinsmobility 	minSpeed 	2.5936228751438
scalar MyScenario.node[183].veinsmobility 	maxSpeed 	13.740267379954
scalar MyScenario.node[183].veinsmobility 	totalDistance 	84.425341043132
scalar MyScenario.node[183].veinsmobility 	totalCO2Emission 	38.226462855875
scalar MyScenario.node[127].appl 	generatedWSMs 	0
scalar MyScenario.node[127].appl 	receivedWSMs 	0
scalar MyScenario.node[127].appl 	generatedBSMs 	0
scalar MyScenario.node[127].appl 	receivedBSMs 	0
scalar MyScenario.node[127].appl 	generatedWSAs 	0
scalar MyScenario.node[127].appl 	receivedWSAs 	0
scalar MyScenario.node[127].nic.phy80211p 	busyTime 	0
scalar MyScenario.node[127].nic.mac1609_4 	ReceivedUnicastPackets 	0
scalar MyScenario.node[127].nic.mac1609_4 	ReceivedBroadcasts 	0
scalar MyScenario.node[127].nic.mac1609_4 	SentPackets 	0
scalar MyScenario.node[127].nic.mac1609_4 	SNIRLostPackets 	0
scalar MyScenario.node[127].nic.mac1609_4 	RXTXLostPackets 	0
scalar MyScenario.node[127].nic.mac1609_4 	TotalLostPackets 	0
scalar MyScenario.node[127].nic.mac1609_4 	DroppedPacketsInMac 	0
scalar MyScenario.node[127].nic.mac1609_4 	TooLittleTime 	0
scalar MyScenario.node[127].nic.mac1609_4 	TimesIntoBackoff 	0
scalar MyScenario.node[127].nic.mac1609_4 	SlotsBackoff 	0
scalar MyScenario.node[127].nic.mac1609_4 	NumInternalContention 	0
scalar MyScenario.node[127].nic.mac1609_4 	totalBusyTime 	0
scalar MyScenario.node[127].veinsmobility 	startTime 	1
scalar MyScenario.node[127].veinsmobility 	totalTime 	9
scalar MyScenario.node[127].veinsmobility 	stopTime 	11
scalar MyScenario.node[127].veinsmobility 	minSpeed 	1.4251552612521
scalar MyScenario.node[127].veinsmobility 	maxSpeed 	13.316355394921
scalar MyScenario.node[127].veinsmobility 	totalDistance 	83.051706841029
scalar MyScenario.node[127].veinsmobility 	totalCO2Emission 	38.436105059426
scalar MyScenario.node[55].appl 	generatedWSMs 	0
scalar MyScenario.node[55].appl 	receivedWSMs 	0
scalar MyScenario.node[55].appl 	generatedBSMs 	0
scalar MyScenario.node[55].appl 	receivedBSMs 	0
scalar MyScenario.node[55].appl 	generatedWSAs 	0
scalar MyScenario.node[55].appl 	receivedWSAs 	0
scalar MyScenario.node[55].nic.phy80211p 	busyTime 	0.00027418181818182
scalar MyScenario.node[55].nic.mac1609_4 	ReceivedUnicastPackets 	0
scalar MyScenario.node[55].nic.mac1609_4 	ReceivedBroadcasts 	0
scalar MyScenario.node[55].nic.mac1609_4 	SentPackets 	0
scalar MyScenario.node[55].nic.mac1609_4 	SNIRLostPackets 	13
scalar MyScenario.node[55].nic.mac1609_4 	RXTXLostPackets 	0
scalar MyScenario.node[55].nic.mac1609_4 	TotalLostPackets 	13
scalar MyScenario.node[55].nic.mac1609_4 	DroppedPacketsInMac 	0
scalar MyScenario.node[55].nic.mac1609_4 	TooLittleTime 	0
scalar MyScenario.node[55].nic.mac1609_4 	TimesIntoBackoff 	0
scalar MyScenario.node[55].nic.mac1609_4 	SlotsBackoff 	0
scalar MyScenario.node[55].nic.mac1609_4 	NumInternalContention 	0
scalar MyScenario.node[55].nic.mac1609_4 	totalBusyTime 	0.000696012386
scalar MyScenario.node[55].veinsmobility 	startTime 	1
scalar MyScenario.node[55].veinsmobility 	totalTime 	10
scalar MyScenario.node[55].veinsmobility 	stopTime 	12
scalar MyScenario.node[55].veinsmobility 	minSpeed 	1.8416189008625
scalar MyScenario.node[55].veinsmobility 	maxSpeed 	13.641535944225
scalar MyScenario.node[55].veinsmobility 	totalDistance 	91.064704629372
scalar MyScenario.node[55].veinsmobility 	totalCO2Emission 	39.408483089897
scalar MyScenario.node[124].appl 	generatedWSMs 	0
scalar MyScenario.node[124].appl 	receivedWSMs 	0
scalar MyScenario.node[124].appl 	generatedBSMs 	0
scalar MyScenario.node[124].appl 	receivedBSMs 	0
scalar MyScenario.node[124].appl 	generatedWSAs 	0
scalar MyScenario.node[124].appl 	receivedWSAs 	0
scalar MyScenario.node[124].nic.phy80211p 	busyTime 	0
scalar MyScenario.node[124].nic.mac1609_4 	ReceivedUnicastPackets 	0
scalar MyScenario.node[124].nic.mac1609_4 	ReceivedBroadcasts 	0
scalar MyScenario.node[124].nic.mac1609_4 	SentPackets 	0
scalar MyScenario.node[124].nic.mac1609_4 	SNIRLostPackets 	0
scalar MyScenario.node[124].nic.mac1609_4 	RXTXLostPackets 	0
scalar MyScenario.node[124].nic.mac1609_4 	TotalLostPackets 	0
scalar MyScenario.node[124].nic.mac1609_4 	DroppedPacketsInMac 	0
scalar MyScenario.node[124].nic.mac1609_4 	TooLittleTime 	0
scalar MyScenario.node[124].nic.mac1609_4 	TimesIntoBackoff 	0
scalar MyScenario.node[124].nic.mac1609_4 	SlotsBackoff 	0
scalar MyScenario.node[124].nic.mac1609_4 	NumInternalContention 	0
scalar MyScenario.node[124].nic.mac1609_4 	totalBusyTime 	0
scalar MyScenario.node[124].veinsmobility 	startTime 	1
scalar MyScenario.node[124].veinsmobility 	totalTime 	10
scalar MyScenario.node[124].veinsmobility 	stopTime 	12
scalar MyScenario.node[124].veinsmobility 	minSpeed 	1.936047897255
scalar MyScenario.node[124].veinsmobility 	maxSpeed 	13.896381152305
scalar MyScenario.node[124].veinsmobility 	totalDistance 	95.046875541836
scalar MyScenario.node[124].veinsmobility 	totalCO2Emission 	41.507120562547
scalar MyScenario.node[205].appl 	generatedWSMs 	1
scalar MyScenario.node[205].appl 	receivedWSMs 	5
scalar MyScenario.node[205].appl 	generatedBSMs 	0
scalar MyScenario.node[205].appl 	receivedBSMs 	0
scalar MyScenario.node[205].appl 	generatedWSAs 	0
scalar MyScenario.node[205].appl 	receivedWSAs 	0
scalar MyScenario.node[205].nic.phy80211p 	busyTime 	0.00031388235294118
scalar MyScenario.node[205].nic.mac1609_4 	ReceivedUnicastPackets 	0
scalar MyScenario.node[205].nic.mac1609_4 	ReceivedBroadcasts 	5
scalar MyScenario.node[205].nic.mac1609_4 	SentPackets 	1
scalar MyScenario.node[205].nic.mac1609_4 	SNIRLostPackets 	18
scalar MyScenario.node[205].nic.mac1609_4 	RXTXLostPackets 	14
scalar MyScenario.node[205].nic.mac1609_4 	TotalLostPackets 	32
scalar MyScenario.node[205].nic.mac1609_4 	DroppedPacketsInMac 	0
scalar MyScenario.node[205].nic.mac1609_4 	TooLittleTime 	0
scalar MyScenario.node[205].nic.mac1609_4 	TimesIntoBackoff 	1
scalar MyScenario.node[205].nic.mac1609_4 	SlotsBackoff 	3
scalar MyScenario.node[205].nic.mac1609_4 	NumInternalContention 	0
scalar MyScenario.node[205].nic.mac1609_4 	totalBusyTime 	0.002089
scalar MyScenario.node[205].veinsmobility 	startTime 	1
scalar MyScenario.node[205].veinsmobility 	totalTime 	16
scalar MyScenario.node[205].veinsmobility 	stopTime 	18
scalar MyScenario.node[205].veinsmobility 	minSpeed 	2.3882219691528
scalar MyScenario.node[205].veinsmobility 	maxSpeed 	13.712467960408
scalar MyScenario.node[205].veinsmobility 	totalDistance 	175.46046182217
scalar MyScenario.node[205].veinsmobility 	totalCO2Emission 	53.037156426359
scalar MyScenario.node[297].appl 	generatedWSMs 	1
scalar MyScenario.node[297].appl 	receivedWSMs 	2
scalar MyScenario.node[297].appl 	generatedBSMs 	0
scalar MyScenario.node[297].appl 	receivedBSMs 	0
scalar MyScenario.node[297].appl 	generatedWSAs 	0
scalar MyScenario.node[297].appl 	receivedWSAs 	0
scalar MyScenario.node[297].nic.phy80211p 	busyTime 	0.00033142857142857
scalar MyScenario.node[297].nic.mac1609_4 	ReceivedUnicastPackets 	0
scalar MyScenario.node[297].nic.mac1609_4 	ReceivedBroadcasts 	2
scalar MyScenario.node[297].nic.mac1609_4 	SentPackets 	1
scalar MyScenario.node[297].nic.mac1609_4 	SNIRLostPackets 	8
scalar MyScenario.node[297].nic.mac1609_4 	RXTXLostPackets 	0
scalar MyScenario.node[297].nic.mac1609_4 	TotalLostPackets 	8
scalar MyScenario.node[297].nic.mac1609_4 	DroppedPacketsInMac 	0
scalar MyScenario.node[297].nic.mac1609_4 	TooLittleTime 	0
scalar MyScenario.node[297].nic.mac1609_4 	TimesIntoBackoff 	1
scalar MyScenario.node[297].nic.mac1609_4 	SlotsBackoff 	2
scalar MyScenario.node[297].nic.mac1609_4 	NumInternalContention 	0
scalar MyScenario.node[297].nic.mac1609_4 	totalBusyTime 	0.000929
scalar MyScenario.node[297].veinsmobility 	startTime 	11
scalar MyScenario.node[297].veinsmobility 	totalTime 	6
scalar MyScenario.node[297].veinsmobility 	stopTime 	18
scalar MyScenario.node[297].veinsmobility 	minSpeed 	12.683522203309
scalar MyScenario.node[297].veinsmobility 	maxSpeed 	13.788364895876
scalar MyScenario.node[297].veinsmobility 	totalDistance 	79.359218753851
scalar MyScenario.node[297].veinsmobility 	totalCO2Emission 	12.980978240602
scalar MyScenario.node[4].appl 	generatedWSMs 	0
scalar MyScenario.node[4].appl 	receivedWSMs 	0
scalar MyScenario.node[4].appl 	generatedBSMs 	0
scalar MyScenario.node[4].appl 	receivedBSMs 	0
scalar MyScenario.node[4].appl 	generatedWSAs 	0
scalar MyScenario.node[4].appl 	receivedWSAs 	0
scalar MyScenario.node[4].nic.phy80211p 	busyTime 	0.00013431578947368
scalar MyScenario.node[4].nic.mac1609_4 	ReceivedUnicastPackets 	0
scalar MyScenario.node[4].nic.mac1609_4 	ReceivedBroadcasts 	0
scalar MyScenario.node[4].nic.mac1609_4 	SentPackets 	0
scalar MyScenario.node[4].nic.mac1609_4 	SNIRLostPackets 	11
scalar MyScenario.node[4].nic.mac1609_4 	RXTXLostPackets 	0
scalar MyScenario.node[4].nic.mac1609_4 	TotalLostPackets 	11
scalar MyScenario.node[4].nic.mac1609_4 	DroppedPacketsInMac 	0
scalar MyScenario.node[4].nic.mac1609_4 	TooLittleTime 	0
scalar MyScenario.node[4].nic.mac1609_4 	TimesIntoBackoff 	0
scalar MyScenario.node[4].nic.mac1609_4 	SlotsBackoff 	0
scalar MyScenario.node[4].nic.mac1609_4 	NumInternalContention 	0
scalar MyScenario.node[4].nic.mac1609_4 	totalBusyTime 	0.000464
scalar MyScenario.node[4].veinsmobility 	startTime 	1
scalar MyScenario.node[4].veinsmobility 	totalTime 	18
scalar MyScenario.node[4].veinsmobility 	stopTime 	20
scalar MyScenario.node[4].veinsmobility 	minSpeed 	1.3250860770233
scalar MyScenario.node[4].veinsmobility 	maxSpeed 	13.759012150345
scalar MyScenario.node[4].veinsmobility 	totalDistance 	182.89627263376
scalar MyScenario.node[4].veinsmobility 	totalCO2Emission 	69.026950599361
scalar MyScenario.node[10].appl 	generatedWSMs 	0
scalar MyScenario.node[10].appl 	receivedWSMs 	0
scalar MyScenario.node[10].appl 	generatedBSMs 	0
scalar MyScenario.node[10].appl 	receivedBSMs 	0
scalar MyScenario.node[10].appl 	generatedWSAs 	0
scalar MyScenario.node[10].appl 	receivedWSAs 	0
scalar MyScenario.node[10].nic.phy80211p 	busyTime 	0.00025984
scalar MyScenario.node[10].nic.mac1609_4 	ReceivedUnicastPackets 	0
scalar MyScenario.node[10].nic.mac1609_4 	ReceivedBroadcasts 	0
scalar MyScenario.node[10].nic.mac1609_4 	SentPackets 	0
scalar MyScenario.node[10].nic.mac1609_4 	SNIRLostPackets 	28
scalar MyScenario.node[10].nic.mac1609_4 	RXTXLostPackets 	0
scalar MyScenario.node[10].nic.mac1609_4 	TotalLostPackets 	28
scalar MyScenario.node[10].nic.mac1609_4 	DroppedPacketsInMac 	0
scalar MyScenario.node[10].nic.mac1609_4 	TooLittleTime 	0
scalar MyScenario.node[10].nic.mac1609_4 	TimesIntoBackoff 	0
scalar MyScenario.node[10].nic.mac1609_4 	SlotsBackoff 	0
scalar MyScenario.node[10].nic.mac1609_4 	NumInternalContention 	0
scalar MyScenario.node[10].nic.mac1609_4 	totalBusyTime 	0.001392
scalar MyScenario.node[10].veinsmobility 	startTime 	1
scalar MyScenario.node[10].veinsmobility 	totalTime 	24
scalar MyScenario.node[10].veinsmobility 	stopTime 	26
scalar MyScenario.node[10].veinsmobility 	minSpeed 	1.4688118616352
scalar MyScenario.node[10].veinsmobility 	maxSpeed 	13.871202941053
scalar MyScenario.node[10].veinsmobility 	totalDistance 	279.10569818667
scalar MyScenario.node[10].veinsmobility 	totalCO2Emission 	72.248415110535
scalar MyScenario.node[121].appl 	generatedWSMs 	1
scalar MyScenario.node[121].appl 	receivedWSMs 	2
scalar MyScenario.node[121].appl 	generatedBSMs 	0
scalar MyScenario.node[121].appl 	receivedBSMs 	0
scalar MyScenario.node[121].appl 	generatedWSAs 	0
scalar MyScenario.node[121].appl 	receivedWSAs 	0
scalar MyScenario.node[121].nic.phy80211p 	busyTime 	0.0001392
scalar MyScenario.node[121].nic.mac1609_4 	ReceivedUnicastPackets 	0
scalar MyScenario.node[121].nic.mac1609_4 	ReceivedBroadcasts 	2
scalar MyScenario.node[121].nic.mac1609_4 	SentPackets 	1
scalar MyScenario.node[121].nic.mac1609_4 	SNIRLostPackets 	13
scalar MyScenario.node[121].nic.mac1609_4 	RXTXLostPackets 	14
scalar MyScenario.node[121].nic.mac1609_4 	TotalLostPackets 	27
scalar MyScenario.node[121].nic.mac1609_4 	DroppedPacketsInMac 	0
scalar MyScenario.node[121].nic.mac1609_4 	TooLittleTime 	0
scalar MyScenario.node[121].nic.mac1609_4 	TimesIntoBackoff 	1
scalar MyScenario.node[121].nic.mac1609_4 	SlotsBackoff 	1
scalar MyScenario.node[121].nic.mac1609_4 	NumInternalContention 	0
scalar MyScenario.node[121].nic.mac1609_4 	totalBusyTime 	0.00162505653
scalar MyScenario.node[121].veinsmobility 	startTime 	1
scalar MyScenario.node[121].veinsmobility 	totalTime 	24
scalar MyScenario.node[121].veinsmobility 	stopTime 	26
scalar MyScenario.node[121].veinsmobility 	minSpeed 	2.2922844473273
scalar MyScenario.node[121].veinsmobility 	maxSpeed 	13.831112497556
scalar MyScenario.node[121].veinsmobility 	totalDistance 	278.33635504302
scalar MyScenario.node[121].veinsmobility 	totalCO2Emission 	69.673819802582
scalar MyScenario.node[90].appl 	generatedWSMs 	0
scalar MyScenario.node[90].appl 	receivedWSMs 	0
scalar MyScenario.node[90].appl 	generatedBSMs 	0
scalar MyScenario.node[90].appl 	receivedBSMs 	0
scalar MyScenario.node[90].appl 	generatedWSAs 	0
scalar MyScenario.node[90].appl 	receivedWSAs 	0
scalar MyScenario.node[90].nic.phy80211p 	busyTime 	0
scalar MyScenario.node[90].nic.mac1609_4 	ReceivedUnicastPackets 	0
scalar MyScenario.node[90].nic.mac1609_4 	ReceivedBroadcasts 	0
scalar MyScenario.node[90].nic.mac1609_4 	SentPackets 	0
scalar MyScenario.node[90].nic.mac1609_4 	SNIRLostPackets 	0
scalar MyScenario.node[90].nic.mac1609_4 	RXTXLostPackets 	0
scalar MyScenario.node[90].nic.mac1609_4 	TotalLostPackets 	0
scalar MyScenario.node[90].nic.mac1609_4 	DroppedPacketsInMac 	0
scalar MyScenario.node[90].nic.mac1609_4 	TooLittleTime 	0
scalar MyScenario.node[90].nic.mac1609_4 	TimesIntoBackoff 	0
scalar MyScenario.node[90].nic.mac1609_4 	SlotsBackoff 	0
scalar MyScenario.node[90].nic.mac1609_4 	NumInternalContention 	0
scalar MyScenario.node[90].nic.mac1609_4 	totalBusyTime 	0
scalar MyScenario.node[90].veinsmobility 	startTime 	1
scalar MyScenario.node[90].veinsmobility 	totalTime 	25
scalar MyScenario.node[90].veinsmobility 	stopTime 	27
scalar MyScenario.node[90].veinsmobility 	minSpeed 	2.2399899585638
scalar MyScenario.node[90].veinsmobility 	maxSpeed 	13.868104340974
scalar MyScenario.node[90].veinsmobility 	totalDistance 	277.57470178319
scalar MyScenario.node[90].veinsmobility 	totalCO2Emission 	85.06618499301
scalar MyScenario.node[126].appl 	generatedWSMs 	0
scalar MyScenario.node[126].appl 	receivedWSMs 	0
scalar MyScenario.node[126].appl 	generatedBSMs 	0
scalar MyScenario.node[126].appl 	receivedBSMs 	0
scalar MyScenario.node[126].appl 	generatedWSAs 	0
scalar MyScenario.node[126].appl 	receivedWSAs 	0
scalar MyScenario.node[126].nic.phy80211p 	busyTime 	2.6769230769231e-05
scalar MyScenario.node[126].nic.mac1609_4 	ReceivedUnicastPackets 	0
scalar MyScenario.node[126].nic.mac1609_4 	ReceivedBroadcasts 	0
scalar MyScenario.node[126].nic.mac1609_4 	SentPackets 	0
scalar MyScenario.node[126].nic.mac1609_4 	SNIRLostPackets 	3
scalar MyScenario.node[126].nic.mac1609_4 	RXTXLostPackets 	0
scalar MyScenario.node[126].nic.mac1609_4 	TotalLostPackets 	3
scalar MyScenario.node[126].nic.mac1609_4 	DroppedPacketsInMac 	0
scalar MyScenario.node[126].nic.mac1609_4 	TooLittleTime 	0
scalar MyScenario.node[126].nic.mac1609_4 	TimesIntoBackoff 	0
scalar MyScenario.node[126].nic.mac1609_4 	SlotsBackoff 	0
scalar MyScenario.node[126].nic.mac1609_4 	NumInternalContention 	0
scalar MyScenario.node[126].nic.mac1609_4 	totalBusyTime 	0.000232
scalar MyScenario.node[126].veinsmobility 	startTime 	1
scalar MyScenario.node[126].veinsmobility 	totalTime 	25
scalar MyScenario.node[126].veinsmobility 	stopTime 	27
scalar MyScenario.node[126].veinsmobility 	minSpeed 	2.2124833118403
scalar MyScenario.node[126].veinsmobility 	maxSpeed 	13.746582878288
scalar MyScenario.node[126].veinsmobility 	totalDistance 	276.41997318362
scalar MyScenario.node[126].veinsmobility 	totalCO2Emission 	81.076877063225
scalar MyScenario.node[182].appl 	generatedWSMs 	1
scalar MyScenario.node[182].appl 	receivedWSMs 	1
scalar MyScenario.node[182].appl 	generatedBSMs 	0
scalar MyScenario.node[182].appl 	receivedBSMs 	0
scalar MyScenario.node[182].appl 	generatedWSAs 	0
scalar MyScenario.node[182].appl 	receivedWSAs 	0
scalar MyScenario.node[182].nic.phy80211p 	busyTime 	0.000104
scalar MyScenario.node[182].nic.mac1609_4 	ReceivedUnicastPackets 	0
scalar MyScenario.node[182].nic.mac1609_4 	ReceivedBroadcasts 	1
scalar MyScenario.node[182].nic.mac1609_4 	SentPackets 	1
scalar MyScenario.node[182].nic.mac1609_4 	SNIRLostPackets 	12
scalar MyScenario.node[182].nic.mac1609_4 	RXTXLostPackets 	6
scalar MyScenario.node[182].nic.mac1609_4 	TotalLostPackets 	18
scalar MyScenario.node[182].nic.mac1609_4 	DroppedPacketsInMac 	0
scalar MyScenario.node[182].nic.mac1609_4 	TooLittleTime 	0
scalar MyScenario.node[182].nic.mac1609_4 	TimesIntoBackoff 	1
scalar MyScenario.node[182].nic.mac1609_4 	SlotsBackoff 	1
scalar MyScenario.node[182].nic.mac1609_4 	NumInternalContention 	0
scalar MyScenario.node[182].nic.mac1609_4 	totalBusyTime 	0.001161064454
scalar MyScenario.node[182].veinsmobility 	startTime 	1
scalar MyScenario.node[182].veinsmobility 	totalTime 	28
scalar MyScenario.node[182].veinsmobility 	stopTime 	30
scalar MyScenario.node[182].veinsmobility 	minSpeed 	1.7216066451451
scalar MyScenario.node[182].veinsmobility 	maxSpeed 	13.807634831825
scalar MyScenario.node[182].veinsmobility 	totalDistance 	275.30121351741
scalar MyScenario.node[182].veinsmobility 	totalCO2Emission 	111.53832618155
scalar MyScenario.node[221].appl 	generatedWSMs 	0
scalar MyScenario.node[221].appl 	receivedWSMs 	0
scalar MyScenario.node[221].appl 	generatedBSMs 	0
scalar MyScenario.node[221].appl 	receivedBSMs 	0
scalar MyScenario.node[221].appl 	generatedWSAs 	0
scalar MyScenario.node[221].appl 	receivedWSAs 	0
scalar MyScenario.node[221].nic.phy80211p 	busyTime 	9.9428571428571e-05
scalar MyScenario.node[221].nic.mac1609_4 	ReceivedUnicastPackets 	0
scalar MyScenario.node[221].nic.mac1609_4 	ReceivedBroadcasts 	0
scalar MyScenario.node[221].nic.mac1609_4 	SentPackets 	0
scalar MyScenario.node[221].nic.mac1609_4 	SNIRLostPackets 	12
scalar MyScenario.node[221].nic.mac1609_4 	RXTXLostPackets 	0
scalar MyScenario.node[221].nic.mac1609_4 	TotalLostPackets 	12
scalar MyScenario.node[221].nic.mac1609_4 	DroppedPacketsInMac 	0
scalar MyScenario.node[221].nic.mac1609_4 	TooLittleTime 	0
scalar MyScenario.node[221].nic.mac1609_4 	TimesIntoBackoff 	0
scalar MyScenario.node[221].nic.mac1609_4 	SlotsBackoff 	0
scalar MyScenario.node[221].nic.mac1609_4 	NumInternalContention 	0
scalar MyScenario.node[221].nic.mac1609_4 	totalBusyTime 	0.000696
scalar MyScenario.node[221].veinsmobility 	startTime 	4
scalar MyScenario.node[221].veinsmobility 	totalTime 	27
scalar MyScenario.node[221].veinsmobility 	stopTime 	32
scalar MyScenario.node[221].veinsmobility 	minSpeed 	0.54807175670521
scalar MyScenario.node[221].veinsmobility 	maxSpeed 	13.889722332405
scalar MyScenario.node[221].veinsmobility 	totalDistance 	284.6624272607
scalar MyScenario.node[221].veinsmobility 	totalCO2Emission 	98.089015064104
scalar MyScenario.node[39].appl 	generatedWSMs 	0
scalar MyScenario.node[39].appl 	receivedWSMs 	0
scalar MyScenario.node[39].appl 	generatedBSMs 	0
scalar MyScenario.node[39].appl 	receivedBSMs 	0
scalar MyScenario.node[39].appl 	generatedWSAs 	0
scalar MyScenario.node[39].appl 	receivedWSAs 	0
scalar MyScenario.node[39].nic.phy80211p 	busyTime 	9.5529411764706e-05
scalar MyScenario.node[39].nic.mac1609_4 	ReceivedUnicastPackets 	0
scalar MyScenario.node[39].nic.mac1609_4 	ReceivedBroadcasts 	0
scalar MyScenario.node[39].nic.mac1609_4 	SentPackets 	0
scalar MyScenario.node[39].nic.mac1609_4 	SNIRLostPackets 	14
scalar MyScenario.node[39].nic.mac1609_4 	RXTXLostPackets 	0
scalar MyScenario.node[39].nic.mac1609_4 	TotalLostPackets 	14
scalar MyScenario.node[39].nic.mac1609_4 	DroppedPacketsInMac 	0
scalar MyScenario.node[39].nic.mac1609_4 	TooLittleTime 	0
scalar MyScenario.node[39].nic.mac1609_4 	TimesIntoBackoff 	0
scalar MyScenario.node[39].nic.mac1609_4 	SlotsBackoff 	0
scalar MyScenario.node[39].nic.mac1609_4 	NumInternalContention 	0
scalar MyScenario.node[39].nic.mac1609_4 	totalBusyTime 	0.000928
scalar MyScenario.node[39].veinsmobility 	startTime 	1
scalar MyScenario.node[39].veinsmobility 	totalTime 	33
scalar MyScenario.node[39].veinsmobility 	stopTime 	35
scalar MyScenario.node[39].veinsmobility 	minSpeed 	1.731347231986
scalar MyScenario.node[39].veinsmobility 	maxSpeed 	13.845630532294
scalar MyScenario.node[39].veinsmobility 	totalDistance 	370.93173504316
scalar MyScenario.node[39].veinsmobility 	totalCO2Emission 	105.8676523752
scalar MyScenario.node[62].appl 	generatedWSMs 	0
scalar MyScenario.node[62].appl 	receivedWSMs 	0
scalar MyScenario.node[62].appl 	generatedBSMs 	0
scalar MyScenario.node[62].appl 	receivedBSMs 	0
scalar MyScenario.node[62].appl 	generatedWSAs 	0
scalar MyScenario.node[62].appl 	receivedWSAs 	0
scalar MyScenario.node[62].nic.phy80211p 	busyTime 	1.3647058823529e-05
scalar MyScenario.node[62].nic.mac1609_4 	ReceivedUnicastPackets 	0
scalar MyScenario.node[62].nic.mac1609_4 	ReceivedBroadcasts 	0
scalar MyScenario.node[62].nic.mac1609_4 	SentPackets 	0
scalar MyScenario.node[62].nic.mac1609_4 	SNIRLostPackets 	2
scalar MyScenario.node[62].nic.mac1609_4 	RXTXLostPackets 	0
scalar MyScenario.node[62].nic.mac1609_4 	TotalLostPackets 	2
scalar MyScenario.node[62].nic.mac1609_4 	DroppedPacketsInMac 	0
scalar MyScenario.node[62].nic.mac1609_4 	TooLittleTime 	0
scalar MyScenario.node[62].nic.mac1609_4 	TimesIntoBackoff 	0
scalar MyScenario.node[62].nic.mac1609_4 	SlotsBackoff 	0
scalar MyScenario.node[62].nic.mac1609_4 	NumInternalContention 	0
scalar MyScenario.node[62].nic.mac1609_4 	totalBusyTime 	0.000232
scalar MyScenario.node[62].veinsmobility 	startTime 	1
scalar MyScenario.node[62].veinsmobility 	totalTime 	33
scalar MyScenario.node[62].veinsmobility 	stopTime 	35
scalar MyScenario.node[62].veinsmobility 	minSpeed 	2.4418446948286
scalar MyScenario.node[62].veinsmobility 	maxSpeed 	13.841842674837
scalar MyScenario.node[62].veinsmobility 	totalDistance 	369.77063174982
scalar MyScenario.node[62].veinsmobility 	totalCO2Emission 	107.75224163763
scalar MyScenario.node[188].appl 	generatedWSMs 	1
scalar MyScenario.node[188].appl 	receivedWSMs 	2
scalar MyScenario.node[188].appl 	generatedBSMs 	0
scalar MyScenario.node[188].appl 	receivedBSMs 	0
scalar MyScenario.node[188].appl 	generatedWSAs 	0
scalar MyScenario.node[188].appl 	receivedWSAs 	0
scalar MyScenario.node[188].nic.phy80211p 	busyTime 	9.9428571428571e-05
scalar MyScenario.node[188].nic.mac1609_4 	ReceivedUnicastPackets 	0
scalar MyScenario.node[188].nic.mac1609_4 	ReceivedBroadcasts 	2
scalar MyScenario.node[188].nic.mac1609_4 	SentPackets 	1
scalar MyScenario.node[188].nic.mac1609_4 	SNIRLostPackets 	13
scalar MyScenario.node[188].nic.mac1609_4 	RXTXLostPackets 	11
scalar MyScenario.node[188].nic.mac1609_4 	TotalLostPackets 	24
scalar MyScenario.node[188].nic.mac1609_4 	DroppedPacketsInMac 	0
scalar MyScenario.node[188].nic.mac1609_4 	TooLittleTime 	0
scalar MyScenario.node[188].nic.mac1609_4 	TimesIntoBackoff 	1
scalar MyScenario.node[188].nic.mac1609_4 	SlotsBackoff 	1
scalar MyScenario.node[188].nic.mac1609_4 	NumInternalContention 	0
scalar MyScenario.node[188].nic.mac1609_4 	totalBusyTime 	0.001393137531
scalar MyScenario.node[188].veinsmobility 	startTime 	1
scalar MyScenario.node[188].veinsmobility 	totalTime 	34
scalar MyScenario.node[188].veinsmobility 	stopTime 	36
scalar MyScenario.node[188].veinsmobility 	minSpeed 	1.6429360131966
scalar MyScenario.node[188].veinsmobility 	maxSpeed 	13.836460391409
scalar MyScenario.node[188].veinsmobility 	totalDistance 	371.93380495067
scalar MyScenario.node[188].veinsmobility 	totalCO2Emission 	108.92865549947
scalar MyScenario.node[144].appl 	generatedWSMs 	0
scalar MyScenario.node[144].appl 	receivedWSMs 	0
scalar MyScenario.node[144].appl 	generatedBSMs 	0
scalar MyScenario.node[144].appl 	receivedBSMs 	0
scalar MyScenario.node[144].appl 	generatedWSAs 	0
scalar MyScenario.node[144].appl 	receivedWSAs 	0
scalar MyScenario.node[144].nic.phy80211p 	busyTime 	0
scalar MyScenario.node[144].nic.mac1609_4 	ReceivedUnicastPackets 	0
scalar MyScenario.node[144].nic.mac1609_4 	ReceivedBroadcasts 	0
scalar MyScenario.node[144].nic.mac1609_4 	SentPackets 	0
scalar MyScenario.node[144].nic.mac1609_4 	SNIRLostPackets 	0
scalar MyScenario.node[144].nic.mac1609_4 	RXTXLostPackets 	0
scalar MyScenario.node[144].nic.mac1609_4 	TotalLostPackets 	0
scalar MyScenario.node[144].nic.mac1609_4 	DroppedPacketsInMac 	0
scalar MyScenario.node[144].nic.mac1609_4 	TooLittleTime 	0
scalar MyScenario.node[144].nic.mac1609_4 	TimesIntoBackoff 	0
scalar MyScenario.node[144].nic.mac1609_4 	SlotsBackoff 	0
scalar MyScenario.node[144].nic.mac1609_4 	NumInternalContention 	0
scalar MyScenario.node[144].nic.mac1609_4 	totalBusyTime 	0
scalar MyScenario.node[144].veinsmobility 	startTime 	1
scalar MyScenario.node[144].veinsmobility 	totalTime 	34
scalar MyScenario.node[144].veinsmobility 	stopTime 	36
scalar MyScenario.node[144].veinsmobility 	minSpeed 	1.6112737738993
scalar MyScenario.node[144].veinsmobility 	maxSpeed 	13.891599915968
scalar MyScenario.node[144].veinsmobility 	totalDistance 	370.83943260558
scalar MyScenario.node[144].veinsmobility 	totalCO2Emission 	116.1491370925
scalar MyScenario.node[272].appl 	generatedWSMs 	0
scalar MyScenario.node[272].appl 	receivedWSMs 	0
scalar MyScenario.node[272].appl 	generatedBSMs 	0
scalar MyScenario.node[272].appl 	receivedBSMs 	0
scalar MyScenario.node[272].appl 	generatedWSAs 	0
scalar MyScenario.node[272].appl 	receivedWSAs 	0
scalar MyScenario.node[272].nic.phy80211p 	busyTime 	2.1090909090909e-05
scalar MyScenario.node[272].nic.mac1609_4 	ReceivedUnicastPackets 	0
scalar MyScenario.node[272].nic.mac1609_4 	ReceivedBroadcasts 	0
scalar MyScenario.node[272].nic.mac1609_4 	SentPackets 	0
scalar MyScenario.node[272].nic.mac1609_4 	SNIRLostPackets 	3
scalar MyScenario.node[272].nic.mac1609_4 	RXTXLostPackets 	0
scalar MyScenario.node[272].nic.mac1609_4 	TotalLostPackets 	3
scalar MyScenario.node[272].nic.mac1609_4 	DroppedPacketsInMac 	0
scalar MyScenario.node[272].nic.mac1609_4 	TooLittleTime 	0
scalar MyScenario.node[272].nic.mac1609_4 	TimesIntoBackoff 	0
scalar MyScenario.node[272].nic.mac1609_4 	SlotsBackoff 	0
scalar MyScenario.node[272].nic.mac1609_4 	NumInternalContention 	0
scalar MyScenario.node[272].nic.mac1609_4 	totalBusyTime 	0.000232
scalar MyScenario.node[272].veinsmobility 	startTime 	4
scalar MyScenario.node[272].veinsmobility 	totalTime 	32
scalar MyScenario.node[272].veinsmobility 	stopTime 	37
scalar MyScenario.node[272].veinsmobility 	minSpeed 	2.148636663612
scalar MyScenario.node[272].veinsmobility 	maxSpeed 	13.818810261437
scalar MyScenario.node[272].veinsmobility 	totalDistance 	368.25538813398
scalar MyScenario.node[272].veinsmobility 	totalCO2Emission 	100.0316955635
scalar MyScenario.node[248].appl 	generatedWSMs 	0
scalar MyScenario.node[248].appl 	receivedWSMs 	0
scalar MyScenario.node[248].appl 	generatedBSMs 	0
scalar MyScenario.node[248].appl 	receivedBSMs 	0
scalar MyScenario.node[248].appl 	generatedWSAs 	0
scalar MyScenario.node[248].appl 	receivedWSAs 	0
scalar MyScenario.node[248].nic.phy80211p 	busyTime 	0
scalar MyScenario.node[248].nic.mac1609_4 	ReceivedUnicastPackets 	0
scalar MyScenario.node[248].nic.mac1609_4 	ReceivedBroadcasts 	0
scalar MyScenario.node[248].nic.mac1609_4 	SentPackets 	0
scalar MyScenario.node[248].nic.mac1609_4 	SNIRLostPackets 	0
scalar MyScenario.node[248].nic.mac1609_4 	RXTXLostPackets 	0
scalar MyScenario.node[248].nic.mac1609_4 	TotalLostPackets 	0
scalar MyScenario.node[248].nic.mac1609_4 	DroppedPacketsInMac 	0
scalar MyScenario.node[248].nic.mac1609_4 	TooLittleTime 	0
scalar MyScenario.node[248].nic.mac1609_4 	TimesIntoBackoff 	0
scalar MyScenario.node[248].nic.mac1609_4 	SlotsBackoff 	0
scalar MyScenario.node[248].nic.mac1609_4 	NumInternalContention 	0
scalar MyScenario.node[248].nic.mac1609_4 	totalBusyTime 	0
scalar MyScenario.node[248].veinsmobility 	startTime 	4
scalar MyScenario.node[248].veinsmobility 	totalTime 	33
scalar MyScenario.node[248].veinsmobility 	stopTime 	38
scalar MyScenario.node[248].veinsmobility 	minSpeed 	0.04949771436594
scalar MyScenario.node[248].veinsmobility 	maxSpeed 	13.826047093887
scalar MyScenario.node[248].veinsmobility 	totalDistance 	279.14266268535
scalar MyScenario.node[248].veinsmobility 	totalCO2Emission 	119.809550035
scalar MyScenario.node[154].appl 	generatedWSMs 	1
scalar MyScenario.node[154].appl 	receivedWSMs 	2
scalar MyScenario.node[154].appl 	generatedBSMs 	0
scalar MyScenario.node[154].appl 	receivedBSMs 	0
scalar MyScenario.node[154].appl 	generatedWSAs 	0
scalar MyScenario.node[154].appl 	receivedWSAs 	0
scalar MyScenario.node[154].nic.phy80211p 	busyTime 	0.00021318918918919
scalar MyScenario.node[154].nic.mac1609_4 	ReceivedUnicastPackets 	0
scalar MyScenario.node[154].nic.mac1609_4 	ReceivedBroadcasts 	2
scalar MyScenario.node[154].nic.mac1609_4 	SentPackets 	1
scalar MyScenario.node[154].nic.mac1609_4 	SNIRLostPackets 	32
scalar MyScenario.node[154].nic.mac1609_4 	RXTXLostPackets 	6
scalar MyScenario.node[154].nic.mac1609_4 	TotalLostPackets 	38
scalar MyScenario.node[154].nic.mac1609_4 	DroppedPacketsInMac 	0
scalar MyScenario.node[154].nic.mac1609_4 	TooLittleTime 	0
scalar MyScenario.node[154].nic.mac1609_4 	TimesIntoBackoff 	1
scalar MyScenario.node[154].nic.mac1609_4 	SlotsBackoff 	3
scalar MyScenario.node[154].nic.mac1609_4 	NumInternalContention 	0
scalar MyScenario.node[154].nic.mac1609_4 	totalBusyTime 	0.002089054221
scalar MyScenario.node[154].veinsmobility 	startTime 	1
scalar MyScenario.node[154].veinsmobility 	totalTime 	36
scalar MyScenario.node[154].veinsmobility 	stopTime 	38
scalar MyScenario.node[154].veinsmobility 	minSpeed 	1.0451929270599
scalar MyScenario.node[154].veinsmobility 	maxSpeed 	13.743872767175
scalar MyScenario.node[154].veinsmobility 	totalDistance 	384.74938180934
scalar MyScenario.node[154].veinsmobility 	totalCO2Emission 	113.79087114318
scalar MyScenario.node[84].appl 	generatedWSMs 	0
scalar MyScenario.node[84].appl 	receivedWSMs 	0
scalar MyScenario.node[84].appl 	generatedBSMs 	0
scalar MyScenario.node[84].appl 	receivedBSMs 	0
scalar MyScenario.node[84].appl 	generatedWSAs 	0
scalar MyScenario.node[84].appl 	receivedWSAs 	0
scalar MyScenario.node[84].nic.phy80211p 	busyTime 	0
scalar MyScenario.node[84].nic.mac1609_4 	ReceivedUnicastPackets 	0
scalar MyScenario.node[84].nic.mac1609_4 	ReceivedBroadcasts 	0
scalar MyScenario.node[84].nic.mac1609_4 	SentPackets 	0
scalar MyScenario.node[84].nic.mac1609_4 	SNIRLostPackets 	0
scalar MyScenario.node[84].nic.mac1609_4 	RXTXLostPackets 	0
scalar MyScenario.node[84].nic.mac1609_4 	TotalLostPackets 	0
scalar MyScenario.node[84].nic.mac1609_4 	DroppedPacketsInMac 	0
scalar MyScenario.node[84].nic.mac1609_4 	TooLittleTime 	0
scalar MyScenario.node[84].nic.mac1609_4 	TimesIntoBackoff 	0
scalar MyScenario.node[84].nic.mac1609_4 	SlotsBackoff 	0
scalar MyScenario.node[84].nic.mac1609_4 	NumInternalContention 	0
scalar MyScenario.node[84].nic.mac1609_4 	totalBusyTime 	0
scalar MyScenario.node[84].veinsmobility 	startTime 	1
scalar MyScenario.node[84].veinsmobility 	totalTime 	38
scalar MyScenario.node[84].veinsmobility 	stopTime 	40
scalar MyScenario.node[84].veinsmobility 	minSpeed 	1.3630396801746
scalar MyScenario.node[84].veinsmobility 	maxSpeed 	13.867558187596
scalar MyScenario.node[84].veinsmobility 	totalDistance 	375.16999591195
scalar MyScenario.node[84].veinsmobility 	totalCO2Emission 	138.20842570922
scalar MyScenario.node[145].appl 	generatedWSMs 	0
scalar MyScenario.node[145].appl 	receivedWSMs 	0
scalar MyScenario.node[145].appl 	generatedBSMs 	0
scalar MyScenario.node[145].appl 	receivedBSMs 	0
scalar MyScenario.node[145].appl 	generatedWSAs 	0
scalar MyScenario.node[145].appl 	receivedWSAs 	0
scalar MyScenario.node[145].nic.phy80211p 	busyTime 	2.3794871794872e-05
scalar MyScenario.node[145].nic.mac1609_4 	ReceivedUnicastPackets 	0
scalar MyScenario.node[145].nic.mac1609_4 	ReceivedBroadcasts 	0
scalar MyScenario.node[145].nic.mac1609_4 	SentPackets 	0
scalar MyScenario.node[145].nic.mac1609_4 	SNIRLostPackets 	4
scalar MyScenario.node[145].nic.mac1609_4 	RXTXLostPackets 	0
scalar MyScenario.node[145].nic.mac1609_4 	TotalLostPackets 	4
scalar MyScenario.node[145].nic.mac1609_4 	DroppedPacketsInMac 	0
scalar MyScenario.node[145].nic.mac1609_4 	TooLittleTime 	0
scalar MyScenario.node[145].nic.mac1609_4 	TimesIntoBackoff 	0
scalar MyScenario.node[145].nic.mac1609_4 	SlotsBackoff 	0
scalar MyScenario.node[145].nic.mac1609_4 	NumInternalContention 	0
scalar MyScenario.node[145].nic.mac1609_4 	totalBusyTime 	0.000464
scalar MyScenario.node[145].veinsmobility 	startTime 	1
scalar MyScenario.node[145].veinsmobility 	totalTime 	38
scalar MyScenario.node[145].veinsmobility 	stopTime 	40
scalar MyScenario.node[145].veinsmobility 	minSpeed 	0.15331321583088
scalar MyScenario.node[145].veinsmobility 	maxSpeed 	13.733436327358
scalar MyScenario.node[145].veinsmobility 	totalDistance 	377.19553614413
scalar MyScenario.node[145].veinsmobility 	totalCO2Emission 	114.05019786719
scalar MyScenario.node[110].appl 	generatedWSMs 	0
scalar MyScenario.node[110].appl 	receivedWSMs 	0
scalar MyScenario.node[110].appl 	generatedBSMs 	0
scalar MyScenario.node[110].appl 	receivedBSMs 	0
scalar MyScenario.node[110].appl 	generatedWSAs 	0
scalar MyScenario.node[110].appl 	receivedWSAs 	0
scalar MyScenario.node[110].nic.phy80211p 	busyTime 	0
scalar MyScenario.node[110].nic.mac1609_4 	ReceivedUnicastPackets 	0
scalar MyScenario.node[110].nic.mac1609_4 	ReceivedBroadcasts 	0
scalar MyScenario.node[110].nic.mac1609_4 	SentPackets 	0
scalar MyScenario.node[110].nic.mac1609_4 	SNIRLostPackets 	0
scalar MyScenario.node[110].nic.mac1609_4 	RXTXLostPackets 	0
scalar MyScenario.node[110].nic.mac1609_4 	TotalLostPackets 	0
scalar MyScenario.node[110].nic.mac1609_4 	DroppedPacketsInMac 	0
scalar MyScenario.node[110].nic.mac1609_4 	TooLittleTime 	0
scalar MyScenario.node[110].nic.mac1609_4 	TimesIntoBackoff 	0
scalar MyScenario.node[110].nic.mac1609_4 	SlotsBackoff 	0
scalar MyScenario.node[110].nic.mac1609_4 	NumInternalContention 	0
scalar MyScenario.node[110].nic.mac1609_4 	totalBusyTime 	0
scalar MyScenario.node[110].veinsmobility 	startTime 	1
scalar MyScenario.node[110].veinsmobility 	totalTime 	41
scalar MyScenario.node[110].veinsmobility 	stopTime 	43
scalar MyScenario.node[110].veinsmobility 	minSpeed 	1.3275338954758
scalar MyScenario.node[110].veinsmobility 	maxSpeed 	13.897258103266
scalar MyScenario.node[110].veinsmobility 	totalDistance 	476.62259724081
scalar MyScenario.node[110].veinsmobility 	totalCO2Emission 	123.08727244317
scalar MyScenario.node[15].appl 	generatedWSMs 	1
scalar MyScenario.node[15].appl 	receivedWSMs 	8
scalar MyScenario.node[15].appl 	generatedBSMs 	0
scalar MyScenario.node[15].appl 	receivedBSMs 	0
scalar MyScenario.node[15].appl 	generatedWSAs 	0
scalar MyScenario.node[15].appl 	receivedWSAs 	0
scalar MyScenario.node[15].nic.phy80211p 	busyTime 	0.000116
scalar MyScenario.node[15].nic.mac1609_4 	ReceivedUnicastPackets 	0
scalar MyScenario.node[15].nic.mac1609_4 	ReceivedBroadcasts 	8
scalar MyScenario.node[15].nic.mac1609_4 	SentPackets 	1
scalar MyScenario.node[15].nic.mac1609_4 	SNIRLostPackets 	13
scalar MyScenario.node[15].nic.mac1609_4 	RXTXLostPackets 	9
scalar MyScenario.node[15].nic.mac1609_4 	TotalLostPackets 	22
scalar MyScenario.node[15].nic.mac1609_4 	DroppedPacketsInMac 	0
scalar MyScenario.node[15].nic.mac1609_4 	TooLittleTime 	0
scalar MyScenario.node[15].nic.mac1609_4 	TimesIntoBackoff 	1
scalar MyScenario.node[15].nic.mac1609_4 	SlotsBackoff 	1
scalar MyScenario.node[15].nic.mac1609_4 	NumInternalContention 	0
scalar MyScenario.node[15].nic.mac1609_4 	totalBusyTime 	0.002785086308
scalar MyScenario.node[15].veinsmobility 	startTime 	1
scalar MyScenario.node[15].veinsmobility 	totalTime 	41
scalar MyScenario.node[15].veinsmobility 	stopTime 	43
scalar MyScenario.node[15].veinsmobility 	minSpeed 	2.3572174035013
scalar MyScenario.node[15].veinsmobility 	maxSpeed 	13.881523057981
scalar MyScenario.node[15].veinsmobility 	totalDistance 	483.07555319682
scalar MyScenario.node[15].veinsmobility 	totalCO2Emission 	124.66220044359
scalar MyScenario.node[146].appl 	generatedWSMs 	0
scalar MyScenario.node[146].appl 	receivedWSMs 	0
scalar MyScenario.node[146].appl 	generatedBSMs 	0
scalar MyScenario.node[146].appl 	receivedBSMs 	0
scalar MyScenario.node[146].appl 	generatedWSAs 	0
scalar MyScenario.node[146].appl 	receivedWSAs 	0
scalar MyScenario.node[146].nic.phy80211p 	busyTime 	3.3142857142857e-05
scalar MyScenario.node[146].nic.mac1609_4 	ReceivedUnicastPackets 	0
scalar MyScenario.node[146].nic.mac1609_4 	ReceivedBroadcasts 	0
scalar MyScenario.node[146].nic.mac1609_4 	SentPackets 	0
scalar MyScenario.node[146].nic.mac1609_4 	SNIRLostPackets 	6
scalar MyScenario.node[146].nic.mac1609_4 	RXTXLostPackets 	0
scalar MyScenario.node[146].nic.mac1609_4 	TotalLostPackets 	6
scalar MyScenario.node[146].nic.mac1609_4 	DroppedPacketsInMac 	0
scalar MyScenario.node[146].nic.mac1609_4 	TooLittleTime 	0
scalar MyScenario.node[146].nic.mac1609_4 	TimesIntoBackoff 	0
scalar MyScenario.node[146].nic.mac1609_4 	SlotsBackoff 	0
scalar MyScenario.node[146].nic.mac1609_4 	NumInternalContention 	0
scalar MyScenario.node[146].nic.mac1609_4 	totalBusyTime 	0.000232
scalar MyScenario.node[146].veinsmobility 	startTime 	1
scalar MyScenario.node[146].veinsmobility 	totalTime 	41
scalar MyScenario.node[146].veinsmobility 	stopTime 	43
scalar MyScenario.node[146].veinsmobility 	minSpeed 	1.3370144248474
scalar MyScenario.node[146].veinsmobility 	maxSpeed 	13.888501046505
scalar MyScenario.node[146].veinsmobility 	totalDistance 	473.17762628637
scalar MyScenario.node[146].veinsmobility 	totalCO2Emission 	127.75397866072
scalar MyScenario.node[186].appl 	generatedWSMs 	0
scalar MyScenario.node[186].appl 	receivedWSMs 	0
scalar MyScenario.node[186].appl 	generatedBSMs 	0
scalar MyScenario.node[186].appl 	receivedBSMs 	0
scalar MyScenario.node[186].appl 	generatedWSAs 	0
scalar MyScenario.node[186].appl 	receivedWSAs 	0
scalar MyScenario.node[186].nic.phy80211p 	busyTime 	2.1581395348837e-05
scalar MyScenario.node[186].nic.mac1609_4 	ReceivedUnicastPackets 	0
scalar MyScenario.node[186].nic.mac1609_4 	ReceivedBroadcasts 	0
scalar MyScenario.node[186].nic.mac1609_4 	SentPackets 	0
scalar MyScenario.node[186].nic.mac1609_4 	SNIRLostPackets 	4
scalar MyScenario.node[186].nic.mac1609_4 	RXTXLostPackets 	0
scalar MyScenario.node[186].nic.mac1609_4 	TotalLostPackets 	4
scalar MyScenario.node[186].nic.mac1609_4 	DroppedPacketsInMac 	0
scalar MyScenario.node[186].nic.mac1609_4 	TooLittleTime 	0
scalar MyScenario.node[186].nic.mac1609_4 	TimesIntoBackoff 	0
scalar MyScenario.node[186].nic.mac1609_4 	SlotsBackoff 	0
scalar MyScenario.node[186].nic.mac1609_4 	NumInternalContention 	0
scalar MyScenario.node[186].nic.mac1609_4 	totalBusyTime 	0.000232
scalar MyScenario.node[186].veinsmobility 	startTime 	1
scalar MyScenario.node[186].veinsmobility 	totalTime 	42
scalar MyScenario.node[186].veinsmobility 	stopTime 	44
scalar MyScenario.node[186].veinsmobility 	minSpeed 	1.5302657888271
scalar MyScenario.node[186].veinsmobility 	maxSpeed 	13.830927055608
scalar MyScenario.node[186].veinsmobility 	totalDistance 	464.51125977999
scalar MyScenario.node[186].veinsmobility 	totalCO2Emission 	140.70555303945
scalar MyScenario.node[32].appl 	generatedWSMs 	0
scalar MyScenario.node[32].appl 	receivedWSMs 	0
scalar MyScenario.node[32].appl 	generatedBSMs 	0
scalar MyScenario.node[32].appl 	receivedBSMs 	0
scalar MyScenario.node[32].appl 	generatedWSAs 	0
scalar MyScenario.node[32].appl 	receivedWSAs 	0
scalar MyScenario.node[32].nic.phy80211p 	busyTime 	7.0139534883721e-05
scalar MyScenario.node[32].nic.mac1609_4 	ReceivedUnicastPackets 	0
scalar MyScenario.node[32].nic.mac1609_4 	ReceivedBroadcasts 	0
scalar MyScenario.node[32].nic.mac1609_4 	SentPackets 	0
scalar MyScenario.node[32].nic.mac1609_4 	SNIRLostPackets 	13
scalar MyScenario.node[32].nic.mac1609_4 	RXTXLostPackets 	0
scalar MyScenario.node[32].nic.mac1609_4 	TotalLostPackets 	13
scalar MyScenario.node[32].nic.mac1609_4 	DroppedPacketsInMac 	0
scalar MyScenario.node[32].nic.mac1609_4 	TooLittleTime 	0
scalar MyScenario.node[32].nic.mac1609_4 	TimesIntoBackoff 	0
scalar MyScenario.node[32].nic.mac1609_4 	SlotsBackoff 	0
scalar MyScenario.node[32].nic.mac1609_4 	NumInternalContention 	0
scalar MyScenario.node[32].nic.mac1609_4 	totalBusyTime 	0.000928
scalar MyScenario.node[32].veinsmobility 	startTime 	1
scalar MyScenario.node[32].veinsmobility 	totalTime 	42
scalar MyScenario.node[32].veinsmobility 	stopTime 	44
scalar MyScenario.node[32].veinsmobility 	minSpeed 	1.8214075746248
scalar MyScenario.node[32].veinsmobility 	maxSpeed 	13.89513977936
scalar MyScenario.node[32].veinsmobility 	totalDistance 	470.89495841863
scalar MyScenario.node[32].veinsmobility 	totalCO2Emission 	140.72789820709
scalar MyScenario.node[197].appl 	generatedWSMs 	0
scalar MyScenario.node[197].appl 	receivedWSMs 	0
scalar MyScenario.node[197].appl 	generatedBSMs 	0
scalar MyScenario.node[197].appl 	receivedBSMs 	0
scalar MyScenario.node[197].appl 	generatedWSAs 	0
scalar MyScenario.node[197].appl 	receivedWSAs 	0
scalar MyScenario.node[197].nic.phy80211p 	busyTime 	0
scalar MyScenario.node[197].nic.mac1609_4 	ReceivedUnicastPackets 	0
scalar MyScenario.node[197].nic.mac1609_4 	ReceivedBroadcasts 	0
scalar MyScenario.node[197].nic.mac1609_4 	SentPackets 	0
scalar MyScenario.node[197].nic.mac1609_4 	SNIRLostPackets 	0
scalar MyScenario.node[197].nic.mac1609_4 	RXTXLostPackets 	0
scalar MyScenario.node[197].nic.mac1609_4 	TotalLostPackets 	0
scalar MyScenario.node[197].nic.mac1609_4 	DroppedPacketsInMac 	0
scalar MyScenario.node[197].nic.mac1609_4 	TooLittleTime 	0
scalar MyScenario.node[197].nic.mac1609_4 	TimesIntoBackoff 	0
scalar MyScenario.node[197].nic.mac1609_4 	SlotsBackoff 	0
scalar MyScenario.node[197].nic.mac1609_4 	NumInternalContention 	0
scalar MyScenario.node[197].nic.mac1609_4 	totalBusyTime 	0
scalar MyScenario.node[197].veinsmobility 	startTime 	1
scalar MyScenario.node[197].veinsmobility 	totalTime 	42
scalar MyScenario.node[197].veinsmobility 	stopTime 	44
scalar MyScenario.node[197].veinsmobility 	minSpeed 	2.3773562560789
scalar MyScenario.node[197].veinsmobility 	maxSpeed 	13.864351104037
scalar MyScenario.node[197].veinsmobility 	totalDistance 	480.40065043506
scalar MyScenario.node[197].veinsmobility 	totalCO2Emission 	140.57481541532
scalar MyScenario.node[73].appl 	generatedWSMs 	1
scalar MyScenario.node[73].appl 	receivedWSMs 	1
scalar MyScenario.node[73].appl 	generatedBSMs 	0
scalar MyScenario.node[73].appl 	receivedBSMs 	0
scalar MyScenario.node[73].appl 	generatedWSAs 	0
scalar MyScenario.node[73].appl 	receivedWSAs 	0
scalar MyScenario.node[73].nic.phy80211p 	busyTime 	1.6186046511628e-05
scalar MyScenario.node[73].nic.mac1609_4 	ReceivedUnicastPackets 	0
scalar MyScenario.node[73].nic.mac1609_4 	ReceivedBroadcasts 	1
scalar MyScenario.node[73].nic.mac1609_4 	SentPackets 	1
scalar MyScenario.node[73].nic.mac1609_4 	SNIRLostPackets 	2
scalar MyScenario.node[73].nic.mac1609_4 	RXTXLostPackets 	20
scalar MyScenario.node[73].nic.mac1609_4 	TotalLostPackets 	22
scalar MyScenario.node[73].nic.mac1609_4 	DroppedPacketsInMac 	0
scalar MyScenario.node[73].nic.mac1609_4 	TooLittleTime 	0
scalar MyScenario.node[73].nic.mac1609_4 	TimesIntoBackoff 	1
scalar MyScenario.node[73].nic.mac1609_4 	SlotsBackoff 	3
scalar MyScenario.node[73].nic.mac1609_4 	NumInternalContention 	0
scalar MyScenario.node[73].nic.mac1609_4 	totalBusyTime 	0.000697197656
scalar MyScenario.node[73].veinsmobility 	startTime 	1
scalar MyScenario.node[73].veinsmobility 	totalTime 	42
scalar MyScenario.node[73].veinsmobility 	stopTime 	44
scalar MyScenario.node[73].veinsmobility 	minSpeed 	1.8091013776371
scalar MyScenario.node[73].veinsmobility 	maxSpeed 	13.89721902397
scalar MyScenario.node[73].veinsmobility 	totalDistance 	462.42909500985
scalar MyScenario.node[73].veinsmobility 	totalCO2Emission 	141.54535384392
scalar MyScenario.node[93].appl 	generatedWSMs 	1
scalar MyScenario.node[93].appl 	receivedWSMs 	16
scalar MyScenario.node[93].appl 	generatedBSMs 	0
scalar MyScenario.node[93].appl 	receivedBSMs 	0
scalar MyScenario.node[93].appl 	generatedWSAs 	0
scalar MyScenario.node[93].appl 	receivedWSAs 	0
scalar MyScenario.node[93].nic.phy80211p 	busyTime 	0.00026363636363636
scalar MyScenario.node[93].nic.mac1609_4 	ReceivedUnicastPackets 	0
scalar MyScenario.node[93].nic.mac1609_4 	ReceivedBroadcasts 	16
scalar MyScenario.node[93].nic.mac1609_4 	SentPackets 	1
scalar MyScenario.node[93].nic.mac1609_4 	SNIRLostPackets 	34
scalar MyScenario.node[93].nic.mac1609_4 	RXTXLostPackets 	10
scalar MyScenario.node[93].nic.mac1609_4 	TotalLostPackets 	44
scalar MyScenario.node[93].nic.mac1609_4 	DroppedPacketsInMac 	0
scalar MyScenario.node[93].nic.mac1609_4 	TooLittleTime 	0
scalar MyScenario.node[93].nic.mac1609_4 	TimesIntoBackoff 	1
scalar MyScenario.node[93].nic.mac1609_4 	SlotsBackoff 	0
scalar MyScenario.node[93].nic.mac1609_4 	NumInternalContention 	0
scalar MyScenario.node[93].nic.mac1609_4 	totalBusyTime 	0.005569074959
scalar MyScenario.node[93].veinsmobility 	startTime 	1
scalar MyScenario.node[93].veinsmobility 	totalTime 	43
scalar MyScenario.node[93].veinsmobility 	stopTime 	45
scalar MyScenario.node[93].veinsmobility 	minSpeed 	1.6432779403171
scalar MyScenario.node[93].veinsmobility 	maxSpeed 	13.852449240093
scalar MyScenario.node[93].veinsmobility 	totalDistance 	476.40968226881
scalar MyScenario.node[93].veinsmobility 	totalCO2Emission 	140.63571497957
scalar MyScenario.node[100].appl 	generatedWSMs 	1
scalar MyScenario.node[100].appl 	receivedWSMs 	1
scalar MyScenario.node[100].appl 	generatedBSMs 	0
scalar MyScenario.node[100].appl 	receivedBSMs 	0
scalar MyScenario.node[100].appl 	generatedWSAs 	0
scalar MyScenario.node[100].appl 	receivedWSAs 	0
scalar MyScenario.node[100].nic.phy80211p 	busyTime 	2.6363636363636e-05
scalar MyScenario.node[100].nic.mac1609_4 	ReceivedUnicastPackets 	0
scalar MyScenario.node[100].nic.mac1609_4 	ReceivedBroadcasts 	1
scalar MyScenario.node[100].nic.mac1609_4 	SentPackets 	1
scalar MyScenario.node[100].nic.mac1609_4 	SNIRLostPackets 	4
scalar MyScenario.node[100].nic.mac1609_4 	RXTXLostPackets 	17
scalar MyScenario.node[100].nic.mac1609_4 	TotalLostPackets 	21
scalar MyScenario.node[100].nic.mac1609_4 	DroppedPacketsInMac 	0
scalar MyScenario.node[100].nic.mac1609_4 	TooLittleTime 	0
scalar MyScenario.node[100].nic.mac1609_4 	TimesIntoBackoff 	1
scalar MyScenario.node[100].nic.mac1609_4 	SlotsBackoff 	2
scalar MyScenario.node[100].nic.mac1609_4 	NumInternalContention 	0
scalar MyScenario.node[100].nic.mac1609_4 	totalBusyTime 	0.00069717511
scalar MyScenario.node[100].veinsmobility 	startTime 	1
scalar MyScenario.node[100].veinsmobility 	totalTime 	43
scalar MyScenario.node[100].veinsmobility 	stopTime 	45
scalar MyScenario.node[100].veinsmobility 	minSpeed 	1.964000796061
scalar MyScenario.node[100].veinsmobility 	maxSpeed 	13.897240690398
scalar MyScenario.node[100].veinsmobility 	totalDistance 	471.35697900557
scalar MyScenario.node[100].veinsmobility 	totalCO2Emission 	160.36940203538
scalar MyScenario.node[26].appl 	generatedWSMs 	0
scalar MyScenario.node[26].appl 	receivedWSMs 	0
scalar MyScenario.node[26].appl 	generatedBSMs 	0
scalar MyScenario.node[26].appl 	receivedBSMs 	0
scalar MyScenario.node[26].appl 	generatedWSAs 	0
scalar MyScenario.node[26].appl 	receivedWSAs 	0
scalar MyScenario.node[26].nic.phy80211p 	busyTime 	5.1555555555556e-06
scalar MyScenario.node[26].nic.mac1609_4 	ReceivedUnicastPackets 	0
scalar MyScenario.node[26].nic.mac1609_4 	ReceivedBroadcasts 	0
scalar MyScenario.node[26].nic.mac1609_4 	SentPackets 	0
scalar MyScenario.node[26].nic.mac1609_4 	SNIRLostPackets 	1
scalar MyScenario.node[26].nic.mac1609_4 	RXTXLostPackets 	0
scalar MyScenario.node[26].nic.mac1609_4 	TotalLostPackets 	1
scalar MyScenario.node[26].nic.mac1609_4 	DroppedPacketsInMac 	0
scalar MyScenario.node[26].nic.mac1609_4 	TooLittleTime 	0
scalar MyScenario.node[26].nic.mac1609_4 	TimesIntoBackoff 	0
scalar MyScenario.node[26].nic.mac1609_4 	SlotsBackoff 	0
scalar MyScenario.node[26].nic.mac1609_4 	NumInternalContention 	0
scalar MyScenario.node[26].nic.mac1609_4 	totalBusyTime 	0.000232
scalar MyScenario.node[26].veinsmobility 	startTime 	1
scalar MyScenario.node[26].veinsmobility 	totalTime 	44
scalar MyScenario.node[26].veinsmobility 	stopTime 	46
scalar MyScenario.node[26].veinsmobility 	minSpeed 	1.6453105854339
scalar MyScenario.node[26].veinsmobility 	maxSpeed 	13.835158642312
scalar MyScenario.node[26].veinsmobility 	totalDistance 	460.87767032996
scalar MyScenario.node[26].veinsmobility 	totalCO2Emission 	161.46267985662
scalar MyScenario.node[21].appl 	generatedWSMs 	0
scalar MyScenario.node[21].appl 	receivedWSMs 	0
scalar MyScenario.node[21].appl 	generatedBSMs 	0
scalar MyScenario.node[21].appl 	receivedBSMs 	0
scalar MyScenario.node[21].appl 	generatedWSAs 	0
scalar MyScenario.node[21].appl 	receivedWSAs 	0
scalar MyScenario.node[21].nic.phy80211p 	busyTime 	0
scalar MyScenario.node[21].nic.mac1609_4 	ReceivedUnicastPackets 	0
scalar MyScenario.node[21].nic.mac1609_4 	ReceivedBroadcasts 	0
scalar MyScenario.node[21].nic.mac1609_4 	SentPackets 	0
scalar MyScenario.node[21].nic.mac1609_4 	SNIRLostPackets 	0
scalar MyScenario.node[21].nic.mac1609_4 	RXTXLostPackets 	0
scalar MyScenario.node[21].nic.mac1609_4 	TotalLostPackets 	0
scalar MyScenario.node[21].nic.mac1609_4 	DroppedPacketsInMac 	0
scalar MyScenario.node[21].nic.mac1609_4 	TooLittleTime 	0
scalar MyScenario.node[21].nic.mac1609_4 	TimesIntoBackoff 	0
scalar MyScenario.node[21].nic.mac1609_4 	SlotsBackoff 	0
scalar MyScenario.node[21].nic.mac1609_4 	NumInternalContention 	0
scalar MyScenario.node[21].nic.mac1609_4 	totalBusyTime 	0
scalar MyScenario.node[21].veinsmobility 	startTime 	1
scalar MyScenario.node[21].veinsmobility 	totalTime 	44
scalar MyScenario.node[21].veinsmobility 	stopTime 	46
scalar MyScenario.node[21].veinsmobility 	minSpeed 	2.0603326134617
scalar MyScenario.node[21].veinsmobility 	maxSpeed 	13.835738805402
scalar MyScenario.node[21].veinsmobility 	totalDistance 	476.55037205163
scalar MyScenario.node[21].veinsmobility 	totalCO2Emission 	159.49717435328
scalar MyScenario.node[116].appl 	generatedWSMs 	0
scalar MyScenario.node[116].appl 	receivedWSMs 	0
scalar MyScenario.node[116].appl 	generatedBSMs 	0
scalar MyScenario.node[116].appl 	receivedBSMs 	0
scalar MyScenario.node[116].appl 	generatedWSAs 	0
scalar MyScenario.node[116].appl 	receivedWSAs 	0
scalar MyScenario.node[116].nic.phy80211p 	busyTime 	9.8723404255319e-06
scalar MyScenario.node[116].nic.mac1609_4 	ReceivedUnicastPackets 	0
scalar MyScenario.node[116].nic.mac1609_4 	ReceivedBroadcasts 	0
scalar MyScenario.node[116].nic.mac1609_4 	SentPackets 	0
scalar MyScenario.node[116].nic.mac1609_4 	SNIRLostPackets 	2
scalar MyScenario.node[116].nic.mac1609_4 	RXTXLostPackets 	0
scalar MyScenario.node[116].nic.mac1609_4 	TotalLostPackets 	2
scalar MyScenario.node[116].nic.mac1609_4 	DroppedPacketsInMac 	0
scalar MyScenario.node[116].nic.mac1609_4 	TooLittleTime 	0
scalar MyScenario.node[116].nic.mac1609_4 	TimesIntoBackoff 	0
scalar MyScenario.node[116].nic.mac1609_4 	SlotsBackoff 	0
scalar MyScenario.node[116].nic.mac1609_4 	NumInternalContention 	0
scalar MyScenario.node[116].nic.mac1609_4 	totalBusyTime 	0.000232
scalar MyScenario.node[116].veinsmobility 	startTime 	1
scalar MyScenario.node[116].veinsmobility 	totalTime 	46
scalar MyScenario.node[116].veinsmobility 	stopTime 	48
scalar MyScenario.node[116].veinsmobility 	minSpeed 	1.5708540160962
scalar MyScenario.node[116].veinsmobility 	maxSpeed 	13.882566407486
scalar MyScenario.node[116].veinsmobility 	totalDistance 	460.35125047057
scalar MyScenario.node[116].veinsmobility 	totalCO2Emission 	152.50270678812
scalar MyScenario.node[138].appl 	generatedWSMs 	1
scalar MyScenario.node[138].appl 	receivedWSMs 	2
scalar MyScenario.node[138].appl 	generatedBSMs 	0
scalar MyScenario.node[138].appl 	receivedBSMs 	0
scalar MyScenario.node[138].appl 	generatedWSAs 	0
scalar MyScenario.node[138].appl 	receivedWSAs 	0
scalar MyScenario.node[138].nic.phy80211p 	busyTime 	8.2166666666667e-05
scalar MyScenario.node[138].nic.mac1609_4 	ReceivedUnicastPackets 	0
scalar MyScenario.node[138].nic.mac1609_4 	ReceivedBroadcasts 	2
scalar MyScenario.node[138].nic.mac1609_4 	SentPackets 	1
scalar MyScenario.node[138].nic.mac1609_4 	SNIRLostPackets 	15
scalar MyScenario.node[138].nic.mac1609_4 	RXTXLostPackets 	6
scalar MyScenario.node[138].nic.mac1609_4 	TotalLostPackets 	21
scalar MyScenario.node[138].nic.mac1609_4 	DroppedPacketsInMac 	0
scalar MyScenario.node[138].nic.mac1609_4 	TooLittleTime 	0
scalar MyScenario.node[138].nic.mac1609_4 	TimesIntoBackoff 	1
scalar MyScenario.node[138].nic.mac1609_4 	SlotsBackoff 	2
scalar MyScenario.node[138].nic.mac1609_4 	NumInternalContention 	0
scalar MyScenario.node[138].nic.mac1609_4 	totalBusyTime 	0.001393053968
scalar MyScenario.node[138].veinsmobility 	startTime 	1
scalar MyScenario.node[138].veinsmobility 	totalTime 	47
scalar MyScenario.node[138].veinsmobility 	stopTime 	49
scalar MyScenario.node[138].veinsmobility 	minSpeed 	0.0040923884834909
scalar MyScenario.node[138].veinsmobility 	maxSpeed 	13.849860816868
scalar MyScenario.node[138].veinsmobility 	totalDistance 	375.99652517778
scalar MyScenario.node[138].veinsmobility 	totalCO2Emission 	129.84219589037
scalar MyScenario.node[80].appl 	generatedWSMs 	1
scalar MyScenario.node[80].appl 	receivedWSMs 	7
scalar MyScenario.node[80].appl 	generatedBSMs 	0
scalar MyScenario.node[80].appl 	receivedBSMs 	0
scalar MyScenario.node[80].appl 	generatedWSAs 	0
scalar MyScenario.node[80].appl 	receivedWSAs 	0
scalar MyScenario.node[80].nic.phy80211p 	busyTime 	0.00013533333333333
scalar MyScenario.node[80].nic.mac1609_4 	ReceivedUnicastPackets 	0
scalar MyScenario.node[80].nic.mac1609_4 	ReceivedBroadcasts 	7
scalar MyScenario.node[80].nic.mac1609_4 	SentPackets 	1
scalar MyScenario.node[80].nic.mac1609_4 	SNIRLostPackets 	21
scalar MyScenario.node[80].nic.mac1609_4 	RXTXLostPackets 	11
scalar MyScenario.node[80].nic.mac1609_4 	TotalLostPackets 	32
scalar MyScenario.node[80].nic.mac1609_4 	DroppedPacketsInMac 	0
scalar MyScenario.node[80].nic.mac1609_4 	TooLittleTime 	0
scalar MyScenario.node[80].nic.mac1609_4 	TimesIntoBackoff 	1
scalar MyScenario.node[80].nic.mac1609_4 	SlotsBackoff 	0
scalar MyScenario.node[80].nic.mac1609_4 	NumInternalContention 	0
scalar MyScenario.node[80].nic.mac1609_4 	totalBusyTime 	0.002785170705
scalar MyScenario.node[80].veinsmobility 	startTime 	1
scalar MyScenario.node[80].veinsmobility 	totalTime 	47
scalar MyScenario.node[80].veinsmobility 	stopTime 	49
scalar MyScenario.node[80].veinsmobility 	minSpeed 	9.671657732247e-05
scalar MyScenario.node[80].veinsmobility 	maxSpeed 	13.888090112316
scalar MyScenario.node[80].veinsmobility 	totalDistance 	376.3361972319
scalar MyScenario.node[80].veinsmobility 	totalCO2Emission 	131.70827440222
scalar MyScenario.node[104].appl 	generatedWSMs 	1
scalar MyScenario.node[104].appl 	receivedWSMs 	17
scalar MyScenario.node[104].appl 	generatedBSMs 	0
scalar MyScenario.node[104].appl 	receivedBSMs 	0
scalar MyScenario.node[104].appl 	generatedWSAs 	0
scalar MyScenario.node[104].appl 	receivedWSAs 	0
scalar MyScenario.node[104].nic.phy80211p 	busyTime 	0.00025616666666667
scalar MyScenario.node[104].nic.mac1609_4 	ReceivedUnicastPackets 	0
scalar MyScenario.node[104].nic.mac1609_4 	ReceivedBroadcasts 	17
scalar MyScenario.node[104].nic.mac1609_4 	SentPackets 	1
scalar MyScenario.node[104].nic.mac1609_4 	SNIRLostPackets 	36
scalar MyScenario.node[104].nic.mac1609_4 	RXTXLostPackets 	14
scalar MyScenario.node[104].nic.mac1609_4 	TotalLostPackets 	50
scalar MyScenario.node[104].nic.mac1609_4 	DroppedPacketsInMac 	0
scalar MyScenario.node[104].nic.mac1609_4 	TooLittleTime 	0
scalar MyScenario.node[104].nic.mac1609_4 	TimesIntoBackoff 	1
scalar MyScenario.node[104].nic.mac1609_4 	SlotsBackoff 	1
scalar MyScenario.node[104].nic.mac1609_4 	NumInternalContention 	0
scalar MyScenario.node[104].nic.mac1609_4 	totalBusyTime 	0.005801108185
scalar MyScenario.node[104].veinsmobility 	startTime 	1
scalar MyScenario.node[104].veinsmobility 	totalTime 	47
scalar MyScenario.node[104].veinsmobility 	stopTime 	49
scalar MyScenario.node[104].veinsmobility 	minSpeed 	0.044345074006626
scalar MyScenario.node[104].veinsmobility 	maxSpeed 	13.890983644687
scalar MyScenario.node[104].veinsmobility 	totalDistance 	464.6668008087
scalar MyScenario.node[104].veinsmobility 	totalCO2Emission 	154.25394803704
scalar MyScenario.node[187].appl 	generatedWSMs 	1
scalar MyScenario.node[187].appl 	receivedWSMs 	15
scalar MyScenario.node[187].appl 	generatedBSMs 	0
scalar MyScenario.node[187].appl 	receivedBSMs 	0
scalar MyScenario.node[187].appl 	generatedWSAs 	0
scalar MyScenario.node[187].appl 	receivedWSAs 	0
scalar MyScenario.node[187].nic.phy80211p 	busyTime 	0.0001595
scalar MyScenario.node[187].nic.mac1609_4 	ReceivedUnicastPackets 	0
scalar MyScenario.node[187].nic.mac1609_4 	ReceivedBroadcasts 	15
scalar MyScenario.node[187].nic.mac1609_4 	SentPackets 	1
scalar MyScenario.node[187].nic.mac1609_4 	SNIRLostPackets 	18
scalar MyScenario.node[187].nic.mac1609_4 	RXTXLostPackets 	1
scalar MyScenario.node[187].nic.mac1609_4 	TotalLostPackets 	19
scalar MyScenario.node[187].nic.mac1609_4 	DroppedPacketsInMac 	0
scalar MyScenario.node[187].nic.mac1609_4 	TooLittleTime 	0
scalar MyScenario.node[187].nic.mac1609_4 	TimesIntoBackoff 	1
scalar MyScenario.node[187].nic.mac1609_4 	SlotsBackoff 	1
scalar MyScenario.node[187].nic.mac1609_4 	NumInternalContention 	0
scalar MyScenario.node[187].nic.mac1609_4 	totalBusyTime 	0.004641
scalar MyScenario.node[187].veinsmobility 	startTime 	1
scalar MyScenario.node[187].veinsmobility 	totalTime 	47
scalar MyScenario.node[187].veinsmobility 	stopTime 	49
scalar MyScenario.node[187].veinsmobility 	minSpeed 	0.0077079927629366
scalar MyScenario.node[187].veinsmobility 	maxSpeed 	13.865320950164
scalar MyScenario.node[187].veinsmobility 	totalDistance 	473.77458722679
scalar MyScenario.node[187].veinsmobility 	totalCO2Emission 	136.08533317831
scalar MyScenario.node[131].appl 	generatedWSMs 	1
scalar MyScenario.node[131].appl 	receivedWSMs 	12
scalar MyScenario.node[131].appl 	generatedBSMs 	0
scalar MyScenario.node[131].appl 	receivedBSMs 	0
scalar MyScenario.node[131].appl 	generatedWSAs 	0
scalar MyScenario.node[131].appl 	receivedWSAs 	0
scalar MyScenario.node[131].nic.phy80211p 	busyTime 	0.0001305
scalar MyScenario.node[131].nic.mac1609_4 	ReceivedUnicastPackets 	0
scalar MyScenario.node[131].nic.mac1609_4 	ReceivedBroadcasts 	12
scalar MyScenario.node[131].nic.mac1609_4 	SentPackets 	1
scalar MyScenario.node[131].nic.mac1609_4 	SNIRLostPackets 	15
scalar MyScenario.node[131].nic.mac1609_4 	RXTXLostPackets 	17
scalar MyScenario.node[131].nic.mac1609_4 	TotalLostPackets 	32
scalar MyScenario.node[131].nic.mac1609_4 	DroppedPacketsInMac 	0
scalar MyScenario.node[131].nic.mac1609_4 	TooLittleTime 	0
scalar MyScenario.node[131].nic.mac1609_4 	TimesIntoBackoff 	1
scalar MyScenario.node[131].nic.mac1609_4 	SlotsBackoff 	3
scalar MyScenario.node[131].nic.mac1609_4 	NumInternalContention 	0
scalar MyScenario.node[131].nic.mac1609_4 	totalBusyTime 	0.003945032804
scalar MyScenario.node[131].veinsmobility 	startTime 	1
scalar MyScenario.node[131].veinsmobility 	totalTime 	47
scalar MyScenario.node[131].veinsmobility 	stopTime 	49
scalar MyScenario.node[131].veinsmobility 	minSpeed 	0.70888064482026
scalar MyScenario.node[131].veinsmobility 	maxSpeed 	13.797629048512
scalar MyScenario.node[131].veinsmobility 	totalDistance 	481.95504060848
scalar MyScenario.node[131].veinsmobility 	totalCO2Emission 	175.73365190056
scalar MyScenario.node[136].appl 	generatedWSMs 	0
scalar MyScenario.node[136].appl 	receivedWSMs 	0
scalar MyScenario.node[136].appl 	generatedBSMs 	0
scalar MyScenario.node[136].appl 	receivedBSMs 	0
scalar MyScenario.node[136].appl 	generatedWSAs 	0
scalar MyScenario.node[136].appl 	receivedWSAs 	0
scalar MyScenario.node[136].nic.phy80211p 	busyTime 	2.8408163265306e-05
scalar MyScenario.node[136].nic.mac1609_4 	ReceivedUnicastPackets 	0
scalar MyScenario.node[136].nic.mac1609_4 	ReceivedBroadcasts 	0
scalar MyScenario.node[136].nic.mac1609_4 	SentPackets 	0
scalar MyScenario.node[136].nic.mac1609_4 	SNIRLostPackets 	6
scalar MyScenario.node[136].nic.mac1609_4 	RXTXLostPackets 	0
scalar MyScenario.node[136].nic.mac1609_4 	TotalLostPackets 	6
scalar MyScenario.node[136].nic.mac1609_4 	DroppedPacketsInMac 	0
scalar MyScenario.node[136].nic.mac1609_4 	TooLittleTime 	0
scalar MyScenario.node[136].nic.mac1609_4 	TimesIntoBackoff 	0
scalar MyScenario.node[136].nic.mac1609_4 	SlotsBackoff 	0
scalar MyScenario.node[136].nic.mac1609_4 	NumInternalContention 	0
scalar MyScenario.node[136].nic.mac1609_4 	totalBusyTime 	0.000232
scalar MyScenario.node[136].veinsmobility 	startTime 	1
scalar MyScenario.node[136].veinsmobility 	totalTime 	48
scalar MyScenario.node[136].veinsmobility 	stopTime 	50
scalar MyScenario.node[136].veinsmobility 	minSpeed 	8.4474363731517e-07
scalar MyScenario.node[136].veinsmobility 	maxSpeed 	13.787687885226
scalar MyScenario.node[136].veinsmobility 	totalDistance 	366.21293018125
scalar MyScenario.node[136].veinsmobility 	totalCO2Emission 	136.78465880066
scalar MyScenario.node[220].appl 	generatedWSMs 	1
scalar MyScenario.node[220].appl 	receivedWSMs 	8
scalar MyScenario.node[220].appl 	generatedBSMs 	0
scalar MyScenario.node[220].appl 	receivedBSMs 	0
scalar MyScenario.node[220].appl 	generatedWSAs 	0
scalar MyScenario.node[220].appl 	receivedWSAs 	0
scalar MyScenario.node[220].nic.phy80211p 	busyTime 	0.00016139130434783
scalar MyScenario.node[220].nic.mac1609_4 	ReceivedUnicastPackets 	0
scalar MyScenario.node[220].nic.mac1609_4 	ReceivedBroadcasts 	8
scalar MyScenario.node[220].nic.mac1609_4 	SentPackets 	1
scalar MyScenario.node[220].nic.mac1609_4 	SNIRLostPackets 	24
scalar MyScenario.node[220].nic.mac1609_4 	RXTXLostPackets 	1
scalar MyScenario.node[220].nic.mac1609_4 	TotalLostPackets 	25
scalar MyScenario.node[220].nic.mac1609_4 	DroppedPacketsInMac 	0
scalar MyScenario.node[220].nic.mac1609_4 	TooLittleTime 	0
scalar MyScenario.node[220].nic.mac1609_4 	TimesIntoBackoff 	1
scalar MyScenario.node[220].nic.mac1609_4 	SlotsBackoff 	1
scalar MyScenario.node[220].nic.mac1609_4 	NumInternalContention 	0
scalar MyScenario.node[220].nic.mac1609_4 	totalBusyTime 	0.003249
scalar MyScenario.node[220].veinsmobility 	startTime 	4
scalar MyScenario.node[220].veinsmobility 	totalTime 	45
scalar MyScenario.node[220].veinsmobility 	stopTime 	50
scalar MyScenario.node[220].veinsmobility 	minSpeed 	1.3978866416495
scalar MyScenario.node[220].veinsmobility 	maxSpeed 	13.865142988646
scalar MyScenario.node[220].veinsmobility 	totalDistance 	479.75787594201
scalar MyScenario.node[220].veinsmobility 	totalCO2Emission 	138.29411775254
scalar MyScenario.node[262].appl 	generatedWSMs 	0
scalar MyScenario.node[262].appl 	receivedWSMs 	0
scalar MyScenario.node[262].appl 	generatedBSMs 	0
scalar MyScenario.node[262].appl 	receivedBSMs 	0
scalar MyScenario.node[262].appl 	generatedWSAs 	0
scalar MyScenario.node[262].appl 	receivedWSAs 	0
scalar MyScenario.node[262].nic.phy80211p 	busyTime 	9.5826086956522e-05
scalar MyScenario.node[262].nic.mac1609_4 	ReceivedUnicastPackets 	0
scalar MyScenario.node[262].nic.mac1609_4 	ReceivedBroadcasts 	0
scalar MyScenario.node[262].nic.mac1609_4 	SentPackets 	0
scalar MyScenario.node[262].nic.mac1609_4 	SNIRLostPackets 	19
scalar MyScenario.node[262].nic.mac1609_4 	RXTXLostPackets 	0
scalar MyScenario.node[262].nic.mac1609_4 	TotalLostPackets 	19
scalar MyScenario.node[262].nic.mac1609_4 	DroppedPacketsInMac 	0
scalar MyScenario.node[262].nic.mac1609_4 	TooLittleTime 	0
scalar MyScenario.node[262].nic.mac1609_4 	TimesIntoBackoff 	0
scalar MyScenario.node[262].nic.mac1609_4 	SlotsBackoff 	0
scalar MyScenario.node[262].nic.mac1609_4 	NumInternalContention 	0
scalar MyScenario.node[262].nic.mac1609_4 	totalBusyTime 	0.000928
scalar MyScenario.node[262].veinsmobility 	startTime 	4
scalar MyScenario.node[262].veinsmobility 	totalTime 	45
scalar MyScenario.node[262].veinsmobility 	stopTime 	50
scalar MyScenario.node[262].veinsmobility 	minSpeed 	0.0051348741041361
scalar MyScenario.node[262].veinsmobility 	maxSpeed 	13.796612892672
scalar MyScenario.node[262].veinsmobility 	totalDistance 	367.79161350332
scalar MyScenario.node[262].veinsmobility 	totalCO2Emission 	141.38687273198
scalar MyScenario.node[147].appl 	generatedWSMs 	0
scalar MyScenario.node[147].appl 	receivedWSMs 	0
scalar MyScenario.node[147].appl 	generatedBSMs 	0
scalar MyScenario.node[147].appl 	receivedBSMs 	0
scalar MyScenario.node[147].appl 	generatedWSAs 	0
scalar MyScenario.node[147].appl 	receivedWSAs 	0
scalar MyScenario.node[147].nic.phy80211p 	busyTime 	1.4204081632653e-05
scalar MyScenario.node[147].nic.mac1609_4 	ReceivedUnicastPackets 	0
scalar MyScenario.node[147].nic.mac1609_4 	ReceivedBroadcasts 	0
scalar MyScenario.node[147].nic.mac1609_4 	SentPackets 	0
scalar MyScenario.node[147].nic.mac1609_4 	SNIRLostPackets 	3
scalar MyScenario.node[147].nic.mac1609_4 	RXTXLostPackets 	0
scalar MyScenario.node[147].nic.mac1609_4 	TotalLostPackets 	3
scalar MyScenario.node[147].nic.mac1609_4 	DroppedPacketsInMac 	0
scalar MyScenario.node[147].nic.mac1609_4 	TooLittleTime 	0
scalar MyScenario.node[147].nic.mac1609_4 	TimesIntoBackoff 	0
scalar MyScenario.node[147].nic.mac1609_4 	SlotsBackoff 	0
scalar MyScenario.node[147].nic.mac1609_4 	NumInternalContention 	0
scalar MyScenario.node[147].nic.mac1609_4 	totalBusyTime 	0.000464
scalar MyScenario.node[147].veinsmobility 	startTime 	1
scalar MyScenario.node[147].veinsmobility 	totalTime 	48
scalar MyScenario.node[147].veinsmobility 	stopTime 	50
scalar MyScenario.node[147].veinsmobility 	minSpeed 	0.40316858441774
scalar MyScenario.node[147].veinsmobility 	maxSpeed 	13.841106812935
scalar MyScenario.node[147].veinsmobility 	totalDistance 	474.29471092031
scalar MyScenario.node[147].veinsmobility 	totalCO2Emission 	156.77995027607
scalar MyScenario.node[50].appl 	generatedWSMs 	0
scalar MyScenario.node[50].appl 	receivedWSMs 	0
scalar MyScenario.node[50].appl 	generatedBSMs 	0
scalar MyScenario.node[50].appl 	receivedBSMs 	0
scalar MyScenario.node[50].appl 	generatedWSAs 	0
scalar MyScenario.node[50].appl 	receivedWSAs 	0
scalar MyScenario.node[50].nic.phy80211p 	busyTime 	0
scalar MyScenario.node[50].nic.mac1609_4 	ReceivedUnicastPackets 	0
scalar MyScenario.node[50].nic.mac1609_4 	ReceivedBroadcasts 	0
scalar MyScenario.node[50].nic.mac1609_4 	SentPackets 	0
scalar MyScenario.node[50].nic.mac1609_4 	SNIRLostPackets 	0
scalar MyScenario.node[50].nic.mac1609_4 	RXTXLostPackets 	0
scalar MyScenario.node[50].nic.mac1609_4 	TotalLostPackets 	0
scalar MyScenario.node[50].nic.mac1609_4 	DroppedPacketsInMac 	0
scalar MyScenario.node[50].nic.mac1609_4 	TooLittleTime 	0
scalar MyScenario.node[50].nic.mac1609_4 	TimesIntoBackoff 	0
scalar MyScenario.node[50].nic.mac1609_4 	SlotsBackoff 	0
scalar MyScenario.node[50].nic.mac1609_4 	NumInternalContention 	0
scalar MyScenario.node[50].nic.mac1609_4 	totalBusyTime 	0
scalar MyScenario.node[50].veinsmobility 	startTime 	1
scalar MyScenario.node[50].veinsmobility 	totalTime 	48
scalar MyScenario.node[50].veinsmobility 	stopTime 	50
scalar MyScenario.node[50].veinsmobility 	minSpeed 	0.063822954823066
scalar MyScenario.node[50].veinsmobility 	maxSpeed 	13.688713369868
scalar MyScenario.node[50].veinsmobility 	totalDistance 	481.01010520678
scalar MyScenario.node[50].veinsmobility 	totalCO2Emission 	165.48244747557
scalar MyScenario.node[305].appl 	generatedWSMs 	0
scalar MyScenario.node[305].appl 	receivedWSMs 	0
scalar MyScenario.node[305].appl 	generatedBSMs 	0
scalar MyScenario.node[305].appl 	receivedBSMs 	0
scalar MyScenario.node[305].appl 	generatedWSAs 	0
scalar MyScenario.node[305].appl 	receivedWSAs 	0
scalar MyScenario.node[305].nic.phy80211p 	busyTime 	0
scalar MyScenario.node[305].nic.mac1609_4 	ReceivedUnicastPackets 	0
scalar MyScenario.node[305].nic.mac1609_4 	ReceivedBroadcasts 	0
scalar MyScenario.node[305].nic.mac1609_4 	SentPackets 	0
scalar MyScenario.node[305].nic.mac1609_4 	SNIRLostPackets 	0
scalar MyScenario.node[305].nic.mac1609_4 	RXTXLostPackets 	0
scalar MyScenario.node[305].nic.mac1609_4 	TotalLostPackets 	0
scalar MyScenario.node[305].nic.mac1609_4 	DroppedPacketsInMac 	0
scalar MyScenario.node[305].nic.mac1609_4 	TooLittleTime 	0
scalar MyScenario.node[305].nic.mac1609_4 	TimesIntoBackoff 	0
scalar MyScenario.node[305].nic.mac1609_4 	SlotsBackoff 	0
scalar MyScenario.node[305].nic.mac1609_4 	NumInternalContention 	0
scalar MyScenario.node[305].nic.mac1609_4 	totalBusyTime 	0
scalar MyScenario.node[305].veinsmobility 	startTime 	19
scalar MyScenario.node[305].veinsmobility 	totalTime 	31
scalar MyScenario.node[305].veinsmobility 	stopTime 	51
scalar MyScenario.node[305].veinsmobility 	minSpeed 	0.80770326132827
scalar MyScenario.node[305].veinsmobility 	maxSpeed 	13.793963229447
scalar MyScenario.node[305].veinsmobility 	totalDistance 	277.94046520798
scalar MyScenario.node[305].veinsmobility 	totalCO2Emission 	105.08099249887
scalar MyScenario.node[46].appl 	generatedWSMs 	0
scalar MyScenario.node[46].appl 	receivedWSMs 	0
scalar MyScenario.node[46].appl 	generatedBSMs 	0
scalar MyScenario.node[46].appl 	receivedBSMs 	0
scalar MyScenario.node[46].appl 	generatedWSAs 	0
scalar MyScenario.node[46].appl 	receivedWSAs 	0
scalar MyScenario.node[46].nic.phy80211p 	busyTime 	0
scalar MyScenario.node[46].nic.mac1609_4 	ReceivedUnicastPackets 	0
scalar MyScenario.node[46].nic.mac1609_4 	ReceivedBroadcasts 	0
scalar MyScenario.node[46].nic.mac1609_4 	SentPackets 	0
scalar MyScenario.node[46].nic.mac1609_4 	SNIRLostPackets 	0
scalar MyScenario.node[46].nic.mac1609_4 	RXTXLostPackets 	0
scalar MyScenario.node[46].nic.mac1609_4 	TotalLostPackets 	0
scalar MyScenario.node[46].nic.mac1609_4 	DroppedPacketsInMac 	0
scalar MyScenario.node[46].nic.mac1609_4 	TooLittleTime 	0
scalar MyScenario.node[46].nic.mac1609_4 	TimesIntoBackoff 	0
scalar MyScenario.node[46].nic.mac1609_4 	SlotsBackoff 	0
scalar MyScenario.node[46].nic.mac1609_4 	NumInternalContention 	0
scalar MyScenario.node[46].nic.mac1609_4 	totalBusyTime 	0
scalar MyScenario.node[46].veinsmobility 	startTime 	1
scalar MyScenario.node[46].veinsmobility 	totalTime 	50
scalar MyScenario.node[46].veinsmobility 	stopTime 	52
scalar MyScenario.node[46].veinsmobility 	minSpeed 	0.031478917237021
scalar MyScenario.node[46].veinsmobility 	maxSpeed 	13.883689705026
scalar MyScenario.node[46].veinsmobility 	totalDistance 	474.75409738872
scalar MyScenario.node[46].veinsmobility 	totalCO2Emission 	174.47413096032
scalar MyScenario.node[79].appl 	generatedWSMs 	1
scalar MyScenario.node[79].appl 	receivedWSMs 	10
scalar MyScenario.node[79].appl 	generatedBSMs 	0
scalar MyScenario.node[79].appl 	receivedBSMs 	0
scalar MyScenario.node[79].appl 	generatedWSAs 	0
scalar MyScenario.node[79].appl 	receivedWSAs 	0
scalar MyScenario.node[79].nic.phy80211p 	busyTime 	0.00022745098039216
scalar MyScenario.node[79].nic.mac1609_4 	ReceivedUnicastPackets 	0
scalar MyScenario.node[79].nic.mac1609_4 	ReceivedBroadcasts 	10
scalar MyScenario.node[79].nic.mac1609_4 	SentPackets 	1
scalar MyScenario.node[79].nic.mac1609_4 	SNIRLostPackets 	40
scalar MyScenario.node[79].nic.mac1609_4 	RXTXLostPackets 	4
scalar MyScenario.node[79].nic.mac1609_4 	TotalLostPackets 	44
scalar MyScenario.node[79].nic.mac1609_4 	DroppedPacketsInMac 	0
scalar MyScenario.node[79].nic.mac1609_4 	TooLittleTime 	0
scalar MyScenario.node[79].nic.mac1609_4 	TimesIntoBackoff 	1
scalar MyScenario.node[79].nic.mac1609_4 	SlotsBackoff 	2
scalar MyScenario.node[79].nic.mac1609_4 	NumInternalContention 	0
scalar MyScenario.node[79].nic.mac1609_4 	totalBusyTime 	0.004873
scalar MyScenario.node[79].veinsmobility 	startTime 	1
scalar MyScenario.node[79].veinsmobility 	totalTime 	50
scalar MyScenario.node[79].veinsmobility 	stopTime 	52
scalar MyScenario.node[79].veinsmobility 	minSpeed 	1.6840378531953
scalar MyScenario.node[79].veinsmobility 	maxSpeed 	13.873787715472
scalar MyScenario.node[79].veinsmobility 	totalDistance 	573.86241949166
scalar MyScenario.node[79].veinsmobility 	totalCO2Emission 	142.5507983362
scalar MyScenario.node[91].appl 	generatedWSMs 	1
scalar MyScenario.node[91].appl 	receivedWSMs 	5
scalar MyScenario.node[91].appl 	generatedBSMs 	0
scalar MyScenario.node[91].appl 	receivedBSMs 	0
scalar MyScenario.node[91].appl 	generatedWSAs 	0
scalar MyScenario.node[91].appl 	receivedWSAs 	0
scalar MyScenario.node[91].nic.phy80211p 	busyTime 	0.00012282352941176
scalar MyScenario.node[91].nic.mac1609_4 	ReceivedUnicastPackets 	0
[...]
scalar MyScenario.node[130].nic.mac1609_4 	DroppedPacketsInMac 	0
scalar MyScenario.node[130].nic.mac1609_4 	TooLittleTime 	0
scalar MyScenario.node[130].nic.mac1609_4 	TimesIntoBackoff 	1
scalar MyScenario.node[130].nic.mac1609_4 	SlotsBackoff 	3
scalar MyScenario.node[130].nic.mac1609_4 	NumInternalContention 	0
scalar MyScenario.node[130].nic.mac1609_4 	totalBusyTime 	0.002089
scalar MyScenario.node[130].veinsmobility 	startTime 	1
scalar MyScenario.node[130].veinsmobility 	totalTime 	147
scalar MyScenario.node[130].veinsmobility 	stopTime 	149
scalar MyScenario.node[130].veinsmobility 	minSpeed 	1.5591223368392e-06
scalar MyScenario.node[130].veinsmobility 	maxSpeed 	13.88762031144
scalar MyScenario.node[130].veinsmobility 	totalDistance 	1578.2638052809
scalar MyScenario.node[130].veinsmobility 	totalCO2Emission 	439.9223267775
scalar MyScenario.node[71].appl 	generatedWSMs 	1
scalar MyScenario.node[71].appl 	receivedWSMs 	1
scalar MyScenario.node[71].appl 	generatedBSMs 	0
scalar MyScenario.node[71].appl 	receivedBSMs 	0
scalar MyScenario.node[71].appl 	generatedWSAs 	0
scalar MyScenario.node[71].appl 	receivedWSAs 	0
scalar MyScenario.node[71].nic.phy80211p 	busyTime 	3.2697986577181e-05
scalar MyScenario.node[71].nic.mac1609_4 	ReceivedUnicastPackets 	0
scalar MyScenario.node[71].nic.mac1609_4 	ReceivedBroadcasts 	1
scalar MyScenario.node[71].nic.mac1609_4 	SentPackets 	1
scalar MyScenario.node[71].nic.mac1609_4 	SNIRLostPackets 	20
scalar MyScenario.node[71].nic.mac1609_4 	RXTXLostPackets 	9
scalar MyScenario.node[71].nic.mac1609_4 	TotalLostPackets 	29
scalar MyScenario.node[71].nic.mac1609_4 	DroppedPacketsInMac 	0
scalar MyScenario.node[71].nic.mac1609_4 	TooLittleTime 	0
scalar MyScenario.node[71].nic.mac1609_4 	TimesIntoBackoff 	1
scalar MyScenario.node[71].nic.mac1609_4 	SlotsBackoff 	0
scalar MyScenario.node[71].nic.mac1609_4 	NumInternalContention 	0
scalar MyScenario.node[71].nic.mac1609_4 	totalBusyTime 	0.001393049879
scalar MyScenario.node[71].veinsmobility 	startTime 	1
scalar MyScenario.node[71].veinsmobility 	totalTime 	148
scalar MyScenario.node[71].veinsmobility 	stopTime 	150
scalar MyScenario.node[71].veinsmobility 	minSpeed 	0
scalar MyScenario.node[71].veinsmobility 	maxSpeed 	13.896564032976
scalar MyScenario.node[71].veinsmobility 	totalDistance 	1067.8871081181
scalar MyScenario.node[71].veinsmobility 	totalCO2Emission 	372.15343611865
scalar MyScenario.node[105].appl 	generatedWSMs 	1
scalar MyScenario.node[105].appl 	receivedWSMs 	5
scalar MyScenario.node[105].appl 	generatedBSMs 	0
scalar MyScenario.node[105].appl 	receivedBSMs 	0
scalar MyScenario.node[105].appl 	generatedWSAs 	0
scalar MyScenario.node[105].appl 	receivedWSAs 	0
scalar MyScenario.node[105].nic.phy80211p 	busyTime 	9.3422818791946e-06
scalar MyScenario.node[105].nic.mac1609_4 	ReceivedUnicastPackets 	0
scalar MyScenario.node[105].nic.mac1609_4 	ReceivedBroadcasts 	5
scalar MyScenario.node[105].nic.mac1609_4 	SentPackets 	1
scalar MyScenario.node[105].nic.mac1609_4 	SNIRLostPackets 	1
scalar MyScenario.node[105].nic.mac1609_4 	RXTXLostPackets 	6
scalar MyScenario.node[105].nic.mac1609_4 	TotalLostPackets 	7
scalar MyScenario.node[105].nic.mac1609_4 	DroppedPacketsInMac 	0
scalar MyScenario.node[105].nic.mac1609_4 	TooLittleTime 	0
scalar MyScenario.node[105].nic.mac1609_4 	TimesIntoBackoff 	1
scalar MyScenario.node[105].nic.mac1609_4 	SlotsBackoff 	0
scalar MyScenario.node[105].nic.mac1609_4 	NumInternalContention 	0
scalar MyScenario.node[105].nic.mac1609_4 	totalBusyTime 	0.001625103171
scalar MyScenario.node[105].veinsmobility 	startTime 	1
scalar MyScenario.node[105].veinsmobility 	totalTime 	148
scalar MyScenario.node[105].veinsmobility 	stopTime 	150
scalar MyScenario.node[105].veinsmobility 	minSpeed 	1.716238461352e-11
scalar MyScenario.node[105].veinsmobility 	maxSpeed 	13.893958289502
scalar MyScenario.node[105].veinsmobility 	totalDistance 	1464.6307312338
scalar MyScenario.node[105].veinsmobility 	totalCO2Emission 	404.90025312358
scalar MyScenario.node[242].appl 	generatedWSMs 	1
scalar MyScenario.node[242].appl 	receivedWSMs 	9
scalar MyScenario.node[242].appl 	generatedBSMs 	0
scalar MyScenario.node[242].appl 	receivedBSMs 	0
scalar MyScenario.node[242].appl 	generatedWSAs 	0
scalar MyScenario.node[242].appl 	receivedWSAs 	0
scalar MyScenario.node[242].nic.phy80211p 	busyTime 	4.1315068493151e-05
scalar MyScenario.node[242].nic.mac1609_4 	ReceivedUnicastPackets 	0
scalar MyScenario.node[242].nic.mac1609_4 	ReceivedBroadcasts 	9
scalar MyScenario.node[242].nic.mac1609_4 	SentPackets 	1
scalar MyScenario.node[242].nic.mac1609_4 	SNIRLostPackets 	17
scalar MyScenario.node[242].nic.mac1609_4 	RXTXLostPackets 	13
scalar MyScenario.node[242].nic.mac1609_4 	TotalLostPackets 	30
scalar MyScenario.node[242].nic.mac1609_4 	DroppedPacketsInMac 	0
scalar MyScenario.node[242].nic.mac1609_4 	TooLittleTime 	0
scalar MyScenario.node[242].nic.mac1609_4 	TimesIntoBackoff 	1
scalar MyScenario.node[242].nic.mac1609_4 	SlotsBackoff 	0
scalar MyScenario.node[242].nic.mac1609_4 	NumInternalContention 	0
scalar MyScenario.node[242].nic.mac1609_4 	totalBusyTime 	0.003249085217
scalar MyScenario.node[242].veinsmobility 	startTime 	4
scalar MyScenario.node[242].veinsmobility 	totalTime 	145
scalar MyScenario.node[242].veinsmobility 	stopTime 	150
scalar MyScenario.node[242].veinsmobility 	minSpeed 	3.4147445916815e-07
scalar MyScenario.node[242].veinsmobility 	maxSpeed 	13.895438877889
scalar MyScenario.node[242].veinsmobility 	totalDistance 	1462.8254153689
scalar MyScenario.node[242].veinsmobility 	totalCO2Emission 	438.94493353214
scalar MyScenario.node[48].appl 	generatedWSMs 	1
scalar MyScenario.node[48].appl 	receivedWSMs 	4
scalar MyScenario.node[48].appl 	generatedBSMs 	0
scalar MyScenario.node[48].appl 	receivedBSMs 	0
scalar MyScenario.node[48].appl 	generatedWSAs 	0
scalar MyScenario.node[48].appl 	receivedWSAs 	0
scalar MyScenario.node[48].nic.phy80211p 	busyTime 	3.4026666666667e-05
scalar MyScenario.node[48].nic.mac1609_4 	ReceivedUnicastPackets 	0
scalar MyScenario.node[48].nic.mac1609_4 	ReceivedBroadcasts 	4
scalar MyScenario.node[48].nic.mac1609_4 	SentPackets 	1
scalar MyScenario.node[48].nic.mac1609_4 	SNIRLostPackets 	18
scalar MyScenario.node[48].nic.mac1609_4 	RXTXLostPackets 	0
scalar MyScenario.node[48].nic.mac1609_4 	TotalLostPackets 	18
scalar MyScenario.node[48].nic.mac1609_4 	DroppedPacketsInMac 	0
scalar MyScenario.node[48].nic.mac1609_4 	TooLittleTime 	0
scalar MyScenario.node[48].nic.mac1609_4 	TimesIntoBackoff 	1
scalar MyScenario.node[48].nic.mac1609_4 	SlotsBackoff 	1
scalar MyScenario.node[48].nic.mac1609_4 	NumInternalContention 	0
scalar MyScenario.node[48].nic.mac1609_4 	totalBusyTime 	0.001857
scalar MyScenario.node[48].veinsmobility 	startTime 	1
scalar MyScenario.node[48].veinsmobility 	totalTime 	149
scalar MyScenario.node[48].veinsmobility 	stopTime 	151
scalar MyScenario.node[48].veinsmobility 	minSpeed 	9.892372652918e-15
scalar MyScenario.node[48].veinsmobility 	maxSpeed 	13.841591727524
scalar MyScenario.node[48].veinsmobility 	totalDistance 	1574.5174127501
scalar MyScenario.node[48].veinsmobility 	totalCO2Emission 	380.37798146259
scalar MyScenario.node[246].appl 	generatedWSMs 	1
scalar MyScenario.node[246].appl 	receivedWSMs 	1
scalar MyScenario.node[246].appl 	generatedBSMs 	0
scalar MyScenario.node[246].appl 	receivedBSMs 	0
scalar MyScenario.node[246].appl 	generatedWSAs 	0
scalar MyScenario.node[246].appl 	receivedWSAs 	0
scalar MyScenario.node[246].nic.phy80211p 	busyTime 	3.2918918918919e-05
scalar MyScenario.node[246].nic.mac1609_4 	ReceivedUnicastPackets 	0
scalar MyScenario.node[246].nic.mac1609_4 	ReceivedBroadcasts 	1
scalar MyScenario.node[246].nic.mac1609_4 	SentPackets 	1
scalar MyScenario.node[246].nic.mac1609_4 	SNIRLostPackets 	20
scalar MyScenario.node[246].nic.mac1609_4 	RXTXLostPackets 	9
scalar MyScenario.node[246].nic.mac1609_4 	TotalLostPackets 	29
scalar MyScenario.node[246].nic.mac1609_4 	DroppedPacketsInMac 	0
scalar MyScenario.node[246].nic.mac1609_4 	TooLittleTime 	0
scalar MyScenario.node[246].nic.mac1609_4 	TimesIntoBackoff 	1
scalar MyScenario.node[246].nic.mac1609_4 	SlotsBackoff 	2
scalar MyScenario.node[246].nic.mac1609_4 	NumInternalContention 	0
scalar MyScenario.node[246].nic.mac1609_4 	totalBusyTime 	0.001393099738
scalar MyScenario.node[246].veinsmobility 	startTime 	4
scalar MyScenario.node[246].veinsmobility 	totalTime 	147
scalar MyScenario.node[246].veinsmobility 	stopTime 	152
scalar MyScenario.node[246].veinsmobility 	minSpeed 	2.4797958698531e-15
scalar MyScenario.node[246].veinsmobility 	maxSpeed 	13.758244263404
scalar MyScenario.node[246].veinsmobility 	totalDistance 	971.66700844756
scalar MyScenario.node[246].veinsmobility 	totalCO2Emission 	374.309324222
scalar MyScenario.node[280].appl 	generatedWSMs 	1
scalar MyScenario.node[280].appl 	receivedWSMs 	1
scalar MyScenario.node[280].appl 	generatedBSMs 	0
scalar MyScenario.node[280].appl 	receivedBSMs 	0
scalar MyScenario.node[280].appl 	generatedWSAs 	0
scalar MyScenario.node[280].appl 	receivedWSAs 	0
scalar MyScenario.node[280].nic.phy80211p 	busyTime 	4.0756756756757e-05
scalar MyScenario.node[280].nic.mac1609_4 	ReceivedUnicastPackets 	0
scalar MyScenario.node[280].nic.mac1609_4 	ReceivedBroadcasts 	1
scalar MyScenario.node[280].nic.mac1609_4 	SentPackets 	1
scalar MyScenario.node[280].nic.mac1609_4 	SNIRLostPackets 	25
scalar MyScenario.node[280].nic.mac1609_4 	RXTXLostPackets 	9
scalar MyScenario.node[280].nic.mac1609_4 	TotalLostPackets 	34
scalar MyScenario.node[280].nic.mac1609_4 	DroppedPacketsInMac 	0
scalar MyScenario.node[280].nic.mac1609_4 	TooLittleTime 	0
scalar MyScenario.node[280].nic.mac1609_4 	TimesIntoBackoff 	1
scalar MyScenario.node[280].nic.mac1609_4 	SlotsBackoff 	2
scalar MyScenario.node[280].nic.mac1609_4 	NumInternalContention 	0
scalar MyScenario.node[280].nic.mac1609_4 	totalBusyTime 	0.001857208481
scalar MyScenario.node[280].veinsmobility 	startTime 	7
scalar MyScenario.node[280].veinsmobility 	totalTime 	147
scalar MyScenario.node[280].veinsmobility 	stopTime 	155
scalar MyScenario.node[280].veinsmobility 	minSpeed 	0
scalar MyScenario.node[280].veinsmobility 	maxSpeed 	13.89643486829
scalar MyScenario.node[280].veinsmobility 	totalDistance 	1178.8204577974
scalar MyScenario.node[280].veinsmobility 	totalCO2Emission 	324.3299469462
scalar MyScenario.node[112].appl 	generatedWSMs 	1
scalar MyScenario.node[112].appl 	receivedWSMs 	6
scalar MyScenario.node[112].appl 	generatedBSMs 	0
scalar MyScenario.node[112].appl 	receivedBSMs 	0
scalar MyScenario.node[112].appl 	generatedWSAs 	0
scalar MyScenario.node[112].appl 	receivedWSAs 	0
scalar MyScenario.node[112].nic.phy80211p 	busyTime 	4.64e-05
scalar MyScenario.node[112].nic.mac1609_4 	ReceivedUnicastPackets 	0
scalar MyScenario.node[112].nic.mac1609_4 	ReceivedBroadcasts 	6
scalar MyScenario.node[112].nic.mac1609_4 	SentPackets 	1
scalar MyScenario.node[112].nic.mac1609_4 	SNIRLostPackets 	25
scalar MyScenario.node[112].nic.mac1609_4 	RXTXLostPackets 	15
scalar MyScenario.node[112].nic.mac1609_4 	TotalLostPackets 	40
scalar MyScenario.node[112].nic.mac1609_4 	DroppedPacketsInMac 	0
scalar MyScenario.node[112].nic.mac1609_4 	TooLittleTime 	0
scalar MyScenario.node[112].nic.mac1609_4 	TimesIntoBackoff 	1
scalar MyScenario.node[112].nic.mac1609_4 	SlotsBackoff 	0
scalar MyScenario.node[112].nic.mac1609_4 	NumInternalContention 	0
scalar MyScenario.node[112].nic.mac1609_4 	totalBusyTime 	0.00301701181
scalar MyScenario.node[112].veinsmobility 	startTime 	1
scalar MyScenario.node[112].veinsmobility 	totalTime 	154
scalar MyScenario.node[112].veinsmobility 	stopTime 	156
scalar MyScenario.node[112].veinsmobility 	minSpeed 	6.529311129136e-08
scalar MyScenario.node[112].veinsmobility 	maxSpeed 	13.895493274601
scalar MyScenario.node[112].veinsmobility 	totalDistance 	1264.4987699431
scalar MyScenario.node[112].veinsmobility 	totalCO2Emission 	423.92479909133
scalar MyScenario.node[115].appl 	generatedWSMs 	1
scalar MyScenario.node[115].appl 	receivedWSMs 	1
scalar MyScenario.node[115].appl 	generatedBSMs 	0
scalar MyScenario.node[115].appl 	receivedBSMs 	0
scalar MyScenario.node[115].appl 	generatedWSAs 	0
scalar MyScenario.node[115].appl 	receivedWSAs 	0
scalar MyScenario.node[115].nic.phy80211p 	busyTime 	3.3559748427673e-05
scalar MyScenario.node[115].nic.mac1609_4 	ReceivedUnicastPackets 	0
scalar MyScenario.node[115].nic.mac1609_4 	ReceivedBroadcasts 	1
scalar MyScenario.node[115].nic.mac1609_4 	SentPackets 	1
scalar MyScenario.node[115].nic.mac1609_4 	SNIRLostPackets 	22
scalar MyScenario.node[115].nic.mac1609_4 	RXTXLostPackets 	9
scalar MyScenario.node[115].nic.mac1609_4 	TotalLostPackets 	31
scalar MyScenario.node[115].nic.mac1609_4 	DroppedPacketsInMac 	0
scalar MyScenario.node[115].nic.mac1609_4 	TooLittleTime 	0
scalar MyScenario.node[115].nic.mac1609_4 	TimesIntoBackoff 	1
scalar MyScenario.node[115].nic.mac1609_4 	SlotsBackoff 	1
scalar MyScenario.node[115].nic.mac1609_4 	NumInternalContention 	0
scalar MyScenario.node[115].nic.mac1609_4 	totalBusyTime 	0.00185714951
scalar MyScenario.node[115].veinsmobility 	startTime 	1
scalar MyScenario.node[115].veinsmobility 	totalTime 	158
scalar MyScenario.node[115].veinsmobility 	stopTime 	160
scalar MyScenario.node[115].veinsmobility 	minSpeed 	2.4463236852611e-15
scalar MyScenario.node[115].veinsmobility 	maxSpeed 	13.897435499681
scalar MyScenario.node[115].veinsmobility 	totalDistance 	1073.0501894775
scalar MyScenario.node[115].veinsmobility 	totalCO2Emission 	394.94893764466
scalar MyScenario.node[190].appl 	generatedWSMs 	1
scalar MyScenario.node[190].appl 	receivedWSMs 	1
scalar MyScenario.node[190].appl 	generatedBSMs 	0
scalar MyScenario.node[190].appl 	receivedBSMs 	0
scalar MyScenario.node[190].appl 	generatedWSAs 	0
scalar MyScenario.node[190].appl 	receivedWSAs 	0
scalar MyScenario.node[190].nic.phy80211p 	busyTime 	4.0347826086956e-05
scalar MyScenario.node[190].nic.mac1609_4 	ReceivedUnicastPackets 	0
scalar MyScenario.node[190].nic.mac1609_4 	ReceivedBroadcasts 	1
scalar MyScenario.node[190].nic.mac1609_4 	SentPackets 	1
scalar MyScenario.node[190].nic.mac1609_4 	SNIRLostPackets 	27
scalar MyScenario.node[190].nic.mac1609_4 	RXTXLostPackets 	24
scalar MyScenario.node[190].nic.mac1609_4 	TotalLostPackets 	51
scalar MyScenario.node[190].nic.mac1609_4 	DroppedPacketsInMac 	0
scalar MyScenario.node[190].nic.mac1609_4 	TooLittleTime 	0
scalar MyScenario.node[190].nic.mac1609_4 	TimesIntoBackoff 	1
scalar MyScenario.node[190].nic.mac1609_4 	SlotsBackoff 	0
scalar MyScenario.node[190].nic.mac1609_4 	NumInternalContention 	0
scalar MyScenario.node[190].nic.mac1609_4 	totalBusyTime 	0.001857199692
scalar MyScenario.node[190].veinsmobility 	startTime 	1
scalar MyScenario.node[190].veinsmobility 	totalTime 	160
scalar MyScenario.node[190].veinsmobility 	stopTime 	162
scalar MyScenario.node[190].veinsmobility 	minSpeed 	2.6365518877355e-15
scalar MyScenario.node[190].veinsmobility 	maxSpeed 	13.831721687037
scalar MyScenario.node[190].veinsmobility 	totalDistance 	1070.886604143
scalar MyScenario.node[190].veinsmobility 	totalCO2Emission 	401.9575693294
scalar MyScenario.node[160].appl 	generatedWSMs 	0
scalar MyScenario.node[160].appl 	receivedWSMs 	0
scalar MyScenario.node[160].appl 	generatedBSMs 	0
scalar MyScenario.node[160].appl 	receivedBSMs 	0
scalar MyScenario.node[160].appl 	generatedWSAs 	0
scalar MyScenario.node[160].appl 	receivedWSAs 	0
scalar MyScenario.node[160].nic.phy80211p 	busyTime 	1.7433526011561e-05
scalar MyScenario.node[160].nic.mac1609_4 	ReceivedUnicastPackets 	0
scalar MyScenario.node[160].nic.mac1609_4 	ReceivedBroadcasts 	0
scalar MyScenario.node[160].nic.mac1609_4 	SentPackets 	0
scalar MyScenario.node[160].nic.mac1609_4 	SNIRLostPackets 	13
scalar MyScenario.node[160].nic.mac1609_4 	RXTXLostPackets 	0
scalar MyScenario.node[160].nic.mac1609_4 	TotalLostPackets 	13
scalar MyScenario.node[160].nic.mac1609_4 	DroppedPacketsInMac 	0
scalar MyScenario.node[160].nic.mac1609_4 	TooLittleTime 	0
scalar MyScenario.node[160].nic.mac1609_4 	TimesIntoBackoff 	0
scalar MyScenario.node[160].nic.mac1609_4 	SlotsBackoff 	0
scalar MyScenario.node[160].nic.mac1609_4 	NumInternalContention 	0
scalar MyScenario.node[160].nic.mac1609_4 	totalBusyTime 	0.000464
scalar MyScenario.node[160].veinsmobility 	startTime 	1
scalar MyScenario.node[160].veinsmobility 	totalTime 	172
scalar MyScenario.node[160].veinsmobility 	stopTime 	174
scalar MyScenario.node[160].veinsmobility 	minSpeed 	0
scalar MyScenario.node[160].veinsmobility 	maxSpeed 	13.874869387876
scalar MyScenario.node[160].veinsmobility 	totalDistance 	1255.3592561089
scalar MyScenario.node[160].veinsmobility 	totalCO2Emission 	478.63436649848
scalar MyScenario.node[42].appl 	generatedWSMs 	0
scalar MyScenario.node[42].appl 	receivedWSMs 	0
scalar MyScenario.node[42].appl 	generatedBSMs 	0
scalar MyScenario.node[42].appl 	receivedBSMs 	0
scalar MyScenario.node[42].appl 	generatedWSAs 	0
scalar MyScenario.node[42].appl 	receivedWSAs 	0
scalar MyScenario.node[42].nic.phy80211p 	busyTime 	6.7052023121387e-06
scalar MyScenario.node[42].nic.mac1609_4 	ReceivedUnicastPackets 	0
scalar MyScenario.node[42].nic.mac1609_4 	ReceivedBroadcasts 	0
scalar MyScenario.node[42].nic.mac1609_4 	SentPackets 	0
scalar MyScenario.node[42].nic.mac1609_4 	SNIRLostPackets 	5
scalar MyScenario.node[42].nic.mac1609_4 	RXTXLostPackets 	0
scalar MyScenario.node[42].nic.mac1609_4 	TotalLostPackets 	5
scalar MyScenario.node[42].nic.mac1609_4 	DroppedPacketsInMac 	0
scalar MyScenario.node[42].nic.mac1609_4 	TooLittleTime 	0
scalar MyScenario.node[42].nic.mac1609_4 	TimesIntoBackoff 	0
scalar MyScenario.node[42].nic.mac1609_4 	SlotsBackoff 	0
scalar MyScenario.node[42].nic.mac1609_4 	NumInternalContention 	0
scalar MyScenario.node[42].nic.mac1609_4 	totalBusyTime 	0.000464
scalar MyScenario.node[42].veinsmobility 	startTime 	1
scalar MyScenario.node[42].veinsmobility 	totalTime 	172
scalar MyScenario.node[42].veinsmobility 	stopTime 	174
scalar MyScenario.node[42].veinsmobility 	minSpeed 	3.3579353678791e-15
scalar MyScenario.node[42].veinsmobility 	maxSpeed 	13.891645173263
scalar MyScenario.node[42].veinsmobility 	totalDistance 	1265.7145309406
scalar MyScenario.node[42].veinsmobility 	totalCO2Emission 	455.20919652212
scalar MyScenario.node[278].appl 	generatedWSMs 	1
scalar MyScenario.node[278].appl 	receivedWSMs 	9
scalar MyScenario.node[278].appl 	generatedBSMs 	0
scalar MyScenario.node[278].appl 	receivedBSMs 	0
scalar MyScenario.node[278].appl 	generatedWSAs 	0
scalar MyScenario.node[278].appl 	receivedWSAs 	0
scalar MyScenario.node[278].nic.phy80211p 	busyTime 	1.7944751381215e-05
scalar MyScenario.node[278].nic.mac1609_4 	ReceivedUnicastPackets 	0
scalar MyScenario.node[278].nic.mac1609_4 	ReceivedBroadcasts 	9
scalar MyScenario.node[278].nic.mac1609_4 	SentPackets 	1
scalar MyScenario.node[278].nic.mac1609_4 	SNIRLostPackets 	5
scalar MyScenario.node[278].nic.mac1609_4 	RXTXLostPackets 	11
scalar MyScenario.node[278].nic.mac1609_4 	TotalLostPackets 	16
scalar MyScenario.node[278].nic.mac1609_4 	DroppedPacketsInMac 	0
scalar MyScenario.node[278].nic.mac1609_4 	TooLittleTime 	0
scalar MyScenario.node[278].nic.mac1609_4 	TimesIntoBackoff 	1
scalar MyScenario.node[278].nic.mac1609_4 	SlotsBackoff 	0
scalar MyScenario.node[278].nic.mac1609_4 	NumInternalContention 	0
scalar MyScenario.node[278].nic.mac1609_4 	totalBusyTime 	0.002785135952
scalar MyScenario.node[278].veinsmobility 	startTime 	7
scalar MyScenario.node[278].veinsmobility 	totalTime 	180
scalar MyScenario.node[278].veinsmobility 	stopTime 	188
scalar MyScenario.node[278].veinsmobility 	minSpeed 	3.921662771933e-07
scalar MyScenario.node[278].veinsmobility 	maxSpeed 	13.891714066523
scalar MyScenario.node[278].veinsmobility 	totalDistance 	1666.1390341465
scalar MyScenario.node[278].veinsmobility 	totalCO2Emission 	509.62863817548
