version 2
run General-26-20170829-17:43:13-8100
attr configname General
attr datetime 20170829-17:43:13
attr density 300
attr experiment General
attr inifile omnetpp.ini
attr iterationvars $density=300
attr iterationvars2 "$density=300, $repetition=6"
attr measurement $density=300
attr network com.liborio.pi.MyScenario
attr processid 8100
attr repetition 6
attr replication #6
attr resultdir results
attr runnumber 26
attr seedset 6
param **.coreDebug false
param **.debug false
param *.**.nic.mac1609_4.bitrate 6Mbps
param *.**.nic.mac1609_4.txPower 20mW
param *.**.nic.mac1609_4.useServiceChannel true
param *.**.nic.phy80211p.analogueModels "xmldoc(\"config.xml\")"
param *.**.nic.phy80211p.antenna "xmldoc(\"antenna.xml\", \"/root/Antenna[@id='monopole']\")"
param *.**.nic.phy80211p.decider "xmldoc(\"config.xml\")"
param *.**.nic.phy80211p.sensitivity -84.39dBm
param *.**.nic.phy80211p.thermalNoise -110dBm
param *.**.nic.phy80211p.usePropagationDelay true
param *.**.nic.phy80211p.useThermalNoise true
param *.annotations.draw true
param *.connectionManager.drawMaxIntfDist false
param *.connectionManager.maxInterfDist 2600m
param *.connectionManager.sendDirect true
param *.manager.autoShutdown true
param *.manager.host "\"localhost\""
param *.manager.launchConfig "xmldoc(string(${density = 100, 200, 300, 400})+\"_\"+ string(${repetition})+\".launchd.xml\")"
param *.manager.port 9999
param *.manager.updateInterval 1s
param *.node[*].appl.beaconInterval 1s
param *.node[*].appl.dataOnSch true
param *.node[*].appl.headerLength "80 bit"
param *.node[*].appl.isSource false
param *.node[*].appl.numMsgs 100
param *.node[*].appl.sendBeacons false
param *.node[*].appl.stopTrafficTime 130s
param *.node[*].appl.wsmInterval 3s
param *.node[*].applType "\"Flooding\""
param *.node[*].veinsmobility.x 0
param *.node[*].veinsmobility.y 0
param *.node[*].veinsmobility.z 1.895
param *.node[*].veinsmobilityType.debug true
param *.node[0].appl.isSource true
param *.playgroundSizeX 2500m
param *.playgroundSizeY 2500m
param *.playgroundSizeZ 50m

scalar . 	density 	300
scalar MyScenario.node[90].appl 	generatedWSMs 	0
scalar MyScenario.node[90].appl 	receivedWSMs 	0
scalar MyScenario.node[90].appl 	generatedBSMs 	0
scalar MyScenario.node[90].appl 	receivedBSMs 	0
scalar MyScenario.node[90].appl 	generatedWSAs 	0
scalar MyScenario.node[90].appl 	receivedWSAs 	0
scalar MyScenario.node[90].nic.phy80211p 	busyTime 	0
scalar MyScenario.node[90].nic.mac1609_4 	ReceivedUnicastPackets 	0
scalar MyScenario.node[90].nic.mac1609_4 	ReceivedBroadcasts 	0
scalar MyScenario.node[90].nic.mac1609_4 	SentPackets 	0
scalar MyScenario.node[90].nic.mac1609_4 	SNIRLostPackets 	0
scalar MyScenario.node[90].nic.mac1609_4 	RXTXLostPackets 	0
scalar MyScenario.node[90].nic.mac1609_4 	TotalLostPackets 	0
scalar MyScenario.node[90].nic.mac1609_4 	DroppedPacketsInMac 	0
scalar MyScenario.node[90].nic.mac1609_4 	TooLittleTime 	0
scalar MyScenario.node[90].nic.mac1609_4 	TimesIntoBackoff 	0
scalar MyScenario.node[90].nic.mac1609_4 	SlotsBackoff 	0
scalar MyScenario.node[90].nic.mac1609_4 	NumInternalContention 	0
scalar MyScenario.node[90].nic.mac1609_4 	totalBusyTime 	0
scalar MyScenario.node[90].veinsmobility 	startTime 	1
scalar MyScenario.node[90].veinsmobility 	totalTime 	9
scalar MyScenario.node[90].veinsmobility 	stopTime 	11
scalar MyScenario.node[90].veinsmobility 	minSpeed 	1.7344880704302
scalar MyScenario.node[90].veinsmobility 	maxSpeed 	13.895957300044
scalar MyScenario.node[90].veinsmobility 	totalDistance 	83.973529024748
scalar MyScenario.node[90].veinsmobility 	totalCO2Emission 	39.066517811188
scalar MyScenario.node[148].appl 	generatedWSMs 	0
scalar MyScenario.node[148].appl 	receivedWSMs 	0
scalar MyScenario.node[148].appl 	generatedBSMs 	0
scalar MyScenario.node[148].appl 	receivedBSMs 	0
scalar MyScenario.node[148].appl 	generatedWSAs 	0
scalar MyScenario.node[148].appl 	receivedWSAs 	0
scalar MyScenario.node[148].nic.phy80211p 	busyTime 	0
scalar MyScenario.node[148].nic.mac1609_4 	ReceivedUnicastPackets 	0
scalar MyScenario.node[148].nic.mac1609_4 	ReceivedBroadcasts 	0
scalar MyScenario.node[148].nic.mac1609_4 	SentPackets 	0
scalar MyScenario.node[148].nic.mac1609_4 	SNIRLostPackets 	0
scalar MyScenario.node[148].nic.mac1609_4 	RXTXLostPackets 	0
scalar MyScenario.node[148].nic.mac1609_4 	TotalLostPackets 	0
scalar MyScenario.node[148].nic.mac1609_4 	DroppedPacketsInMac 	0
scalar MyScenario.node[148].nic.mac1609_4 	TooLittleTime 	0
scalar MyScenario.node[148].nic.mac1609_4 	TimesIntoBackoff 	0
scalar MyScenario.node[148].nic.mac1609_4 	SlotsBackoff 	0
scalar MyScenario.node[148].nic.mac1609_4 	NumInternalContention 	0
scalar MyScenario.node[148].nic.mac1609_4 	totalBusyTime 	0
scalar MyScenario.node[148].veinsmobility 	startTime 	1
scalar MyScenario.node[148].veinsmobility 	totalTime 	10
scalar MyScenario.node[148].veinsmobility 	stopTime 	12
scalar MyScenario.node[148].veinsmobility 	minSpeed 	2.5903387362603
scalar MyScenario.node[148].veinsmobility 	maxSpeed 	13.794479333982
scalar MyScenario.node[148].veinsmobility 	totalDistance 	92.184522713268
scalar MyScenario.node[148].veinsmobility 	totalCO2Emission 	39.152600320558
scalar MyScenario.node[80].appl 	generatedWSMs 	0
scalar MyScenario.node[80].appl 	receivedWSMs 	0
scalar MyScenario.node[80].appl 	generatedBSMs 	0
scalar MyScenario.node[80].appl 	receivedBSMs 	0
scalar MyScenario.node[80].appl 	generatedWSAs 	0
scalar MyScenario.node[80].appl 	receivedWSAs 	0
scalar MyScenario.node[80].nic.phy80211p 	busyTime 	0.00031636363636364
scalar MyScenario.node[80].nic.mac1609_4 	ReceivedUnicastPackets 	0
scalar MyScenario.node[80].nic.mac1609_4 	ReceivedBroadcasts 	0
scalar MyScenario.node[80].nic.mac1609_4 	SentPackets 	0
scalar MyScenario.node[80].nic.mac1609_4 	SNIRLostPackets 	15
scalar MyScenario.node[80].nic.mac1609_4 	RXTXLostPackets 	0
scalar MyScenario.node[80].nic.mac1609_4 	TotalLostPackets 	15
scalar MyScenario.node[80].nic.mac1609_4 	DroppedPacketsInMac 	0
scalar MyScenario.node[80].nic.mac1609_4 	TooLittleTime 	0
scalar MyScenario.node[80].nic.mac1609_4 	TimesIntoBackoff 	0
scalar MyScenario.node[80].nic.mac1609_4 	SlotsBackoff 	0
scalar MyScenario.node[80].nic.mac1609_4 	NumInternalContention 	0
scalar MyScenario.node[80].nic.mac1609_4 	totalBusyTime 	0.000928
scalar MyScenario.node[80].veinsmobility 	startTime 	1
scalar MyScenario.node[80].veinsmobility 	totalTime 	10
scalar MyScenario.node[80].veinsmobility 	stopTime 	12
scalar MyScenario.node[80].veinsmobility 	minSpeed 	2.125864459225
scalar MyScenario.node[80].veinsmobility 	maxSpeed 	13.784496577643
scalar MyScenario.node[80].veinsmobility 	totalDistance 	92.426540255498
scalar MyScenario.node[80].veinsmobility 	totalCO2Emission 	39.896478877489
scalar MyScenario.node[200].appl 	generatedWSMs 	0
scalar MyScenario.node[200].appl 	receivedWSMs 	0
scalar MyScenario.node[200].appl 	generatedBSMs 	0
scalar MyScenario.node[200].appl 	receivedBSMs 	0
scalar MyScenario.node[200].appl 	generatedWSAs 	0
scalar MyScenario.node[200].appl 	receivedWSAs 	0
scalar MyScenario.node[200].nic.phy80211p 	busyTime 	0
scalar MyScenario.node[200].nic.mac1609_4 	ReceivedUnicastPackets 	0
scalar MyScenario.node[200].nic.mac1609_4 	ReceivedBroadcasts 	0
scalar MyScenario.node[200].nic.mac1609_4 	SentPackets 	0
scalar MyScenario.node[200].nic.mac1609_4 	SNIRLostPackets 	0
scalar MyScenario.node[200].nic.mac1609_4 	RXTXLostPackets 	0
scalar MyScenario.node[200].nic.mac1609_4 	TotalLostPackets 	0
scalar MyScenario.node[200].nic.mac1609_4 	DroppedPacketsInMac 	0
scalar MyScenario.node[200].nic.mac1609_4 	TooLittleTime 	0
scalar MyScenario.node[200].nic.mac1609_4 	TimesIntoBackoff 	0
scalar MyScenario.node[200].nic.mac1609_4 	SlotsBackoff 	0
scalar MyScenario.node[200].nic.mac1609_4 	NumInternalContention 	0
scalar MyScenario.node[200].nic.mac1609_4 	totalBusyTime 	0
scalar MyScenario.node[200].veinsmobility 	startTime 	4
scalar MyScenario.node[200].veinsmobility 	totalTime 	9
scalar MyScenario.node[200].veinsmobility 	stopTime 	14
scalar MyScenario.node[200].veinsmobility 	minSpeed 	1.3552464147331
scalar MyScenario.node[200].veinsmobility 	maxSpeed 	13.236375296046
scalar MyScenario.node[200].veinsmobility 	totalDistance 	78.369962495123
scalar MyScenario.node[200].veinsmobility 	totalCO2Emission 	36.247462604443
scalar MyScenario.node[229].appl 	generatedWSMs 	0
scalar MyScenario.node[229].appl 	receivedWSMs 	0
scalar MyScenario.node[229].appl 	generatedBSMs 	0
scalar MyScenario.node[229].appl 	receivedBSMs 	0
scalar MyScenario.node[229].appl 	generatedWSAs 	0
scalar MyScenario.node[229].appl 	receivedWSAs 	0
scalar MyScenario.node[229].nic.phy80211p 	busyTime 	0
scalar MyScenario.node[229].nic.mac1609_4 	ReceivedUnicastPackets 	0
scalar MyScenario.node[229].nic.mac1609_4 	ReceivedBroadcasts 	0
scalar MyScenario.node[229].nic.mac1609_4 	SentPackets 	0
scalar MyScenario.node[229].nic.mac1609_4 	SNIRLostPackets 	0
scalar MyScenario.node[229].nic.mac1609_4 	RXTXLostPackets 	0
scalar MyScenario.node[229].nic.mac1609_4 	TotalLostPackets 	0
scalar MyScenario.node[229].nic.mac1609_4 	DroppedPacketsInMac 	0
scalar MyScenario.node[229].nic.mac1609_4 	TooLittleTime 	0
scalar MyScenario.node[229].nic.mac1609_4 	TimesIntoBackoff 	0
scalar MyScenario.node[229].nic.mac1609_4 	SlotsBackoff 	0
scalar MyScenario.node[229].nic.mac1609_4 	NumInternalContention 	0
scalar MyScenario.node[229].nic.mac1609_4 	totalBusyTime 	0
scalar MyScenario.node[229].veinsmobility 	startTime 	4
scalar MyScenario.node[229].veinsmobility 	totalTime 	10
scalar MyScenario.node[229].veinsmobility 	stopTime 	15
scalar MyScenario.node[229].veinsmobility 	minSpeed 	1.3022425748874
scalar MyScenario.node[229].veinsmobility 	maxSpeed 	13.222939476417
scalar MyScenario.node[229].veinsmobility 	totalDistance 	86.848107197057
scalar MyScenario.node[229].veinsmobility 	totalCO2Emission 	37.110176967057
scalar MyScenario.node[140].appl 	generatedWSMs 	1
scalar MyScenario.node[140].appl 	receivedWSMs 	8
scalar MyScenario.node[140].appl 	generatedBSMs 	0
scalar MyScenario.node[140].appl 	receivedBSMs 	0
scalar MyScenario.node[140].appl 	generatedWSAs 	0
scalar MyScenario.node[140].appl 	receivedWSAs 	0
scalar MyScenario.node[140].nic.phy80211p 	busyTime 	0.00040294736842105
scalar MyScenario.node[140].nic.mac1609_4 	ReceivedUnicastPackets 	0
scalar MyScenario.node[140].nic.mac1609_4 	ReceivedBroadcasts 	8
scalar MyScenario.node[140].nic.mac1609_4 	SentPackets 	1
scalar MyScenario.node[140].nic.mac1609_4 	SNIRLostPackets 	25
scalar MyScenario.node[140].nic.mac1609_4 	RXTXLostPackets 	13
scalar MyScenario.node[140].nic.mac1609_4 	TotalLostPackets 	38
scalar MyScenario.node[140].nic.mac1609_4 	DroppedPacketsInMac 	0
scalar MyScenario.node[140].nic.mac1609_4 	TooLittleTime 	0
scalar MyScenario.node[140].nic.mac1609_4 	TimesIntoBackoff 	1
scalar MyScenario.node[140].nic.mac1609_4 	SlotsBackoff 	0
scalar MyScenario.node[140].nic.mac1609_4 	NumInternalContention 	0
scalar MyScenario.node[140].nic.mac1609_4 	totalBusyTime 	0.003713161419
scalar MyScenario.node[140].veinsmobility 	startTime 	1
scalar MyScenario.node[140].veinsmobility 	totalTime 	18
scalar MyScenario.node[140].veinsmobility 	stopTime 	20
scalar MyScenario.node[140].veinsmobility 	minSpeed 	2.0037340924842
scalar MyScenario.node[140].veinsmobility 	maxSpeed 	13.729007051676
scalar MyScenario.node[140].veinsmobility 	totalDistance 	174.26702063963
scalar MyScenario.node[140].veinsmobility 	totalCO2Emission 	72.427724681835
scalar MyScenario.node[187].appl 	generatedWSMs 	0
scalar MyScenario.node[187].appl 	receivedWSMs 	0
scalar MyScenario.node[187].appl 	generatedBSMs 	0
scalar MyScenario.node[187].appl 	receivedBSMs 	0
scalar MyScenario.node[187].appl 	generatedWSAs 	0
scalar MyScenario.node[187].appl 	receivedWSAs 	0
scalar MyScenario.node[187].nic.phy80211p 	busyTime 	6.1052631578947e-05
scalar MyScenario.node[187].nic.mac1609_4 	ReceivedUnicastPackets 	0
scalar MyScenario.node[187].nic.mac1609_4 	ReceivedBroadcasts 	0
scalar MyScenario.node[187].nic.mac1609_4 	SentPackets 	0
scalar MyScenario.node[187].nic.mac1609_4 	SNIRLostPackets 	5
scalar MyScenario.node[187].nic.mac1609_4 	RXTXLostPackets 	0
scalar MyScenario.node[187].nic.mac1609_4 	TotalLostPackets 	5
scalar MyScenario.node[187].nic.mac1609_4 	DroppedPacketsInMac 	0
scalar MyScenario.node[187].nic.mac1609_4 	TooLittleTime 	0
scalar MyScenario.node[187].nic.mac1609_4 	TimesIntoBackoff 	0
scalar MyScenario.node[187].nic.mac1609_4 	SlotsBackoff 	0
scalar MyScenario.node[187].nic.mac1609_4 	NumInternalContention 	0
scalar MyScenario.node[187].nic.mac1609_4 	totalBusyTime 	0.000232
scalar MyScenario.node[187].veinsmobility 	startTime 	1
scalar MyScenario.node[187].veinsmobility 	totalTime 	18
scalar MyScenario.node[187].veinsmobility 	stopTime 	20
scalar MyScenario.node[187].veinsmobility 	minSpeed 	2.3417881402187
scalar MyScenario.node[187].veinsmobility 	maxSpeed 	13.613075837377
scalar MyScenario.node[187].veinsmobility 	totalDistance 	178.20886354472
scalar MyScenario.node[187].veinsmobility 	totalCO2Emission 	70.517317764711
scalar MyScenario.node[146].appl 	generatedWSMs 	1
scalar MyScenario.node[146].appl 	receivedWSMs 	2
scalar MyScenario.node[146].appl 	generatedBSMs 	0
scalar MyScenario.node[146].appl 	receivedBSMs 	0
scalar MyScenario.node[146].appl 	generatedWSAs 	0
scalar MyScenario.node[146].appl 	receivedWSAs 	0
scalar MyScenario.node[146].nic.phy80211p 	busyTime 	0.000232
scalar MyScenario.node[146].nic.mac1609_4 	ReceivedUnicastPackets 	0
scalar MyScenario.node[146].nic.mac1609_4 	ReceivedBroadcasts 	2
scalar MyScenario.node[146].nic.mac1609_4 	SentPackets 	1
scalar MyScenario.node[146].nic.mac1609_4 	SNIRLostPackets 	17
scalar MyScenario.node[146].nic.mac1609_4 	RXTXLostPackets 	9
scalar MyScenario.node[146].nic.mac1609_4 	TotalLostPackets 	26
scalar MyScenario.node[146].nic.mac1609_4 	DroppedPacketsInMac 	0
scalar MyScenario.node[146].nic.mac1609_4 	TooLittleTime 	0
scalar MyScenario.node[146].nic.mac1609_4 	TimesIntoBackoff 	1
scalar MyScenario.node[146].nic.mac1609_4 	SlotsBackoff 	0
scalar MyScenario.node[146].nic.mac1609_4 	NumInternalContention 	0
scalar MyScenario.node[146].nic.mac1609_4 	totalBusyTime 	0.002089
scalar MyScenario.node[146].veinsmobility 	startTime 	1
scalar MyScenario.node[146].veinsmobility 	totalTime 	18
scalar MyScenario.node[146].veinsmobility 	stopTime 	20
scalar MyScenario.node[146].veinsmobility 	minSpeed 	1.3407335658092
scalar MyScenario.node[146].veinsmobility 	maxSpeed 	13.804024473391
scalar MyScenario.node[146].veinsmobility 	totalDistance 	182.16270023236
scalar MyScenario.node[146].veinsmobility 	totalCO2Emission 	71.437105180731
scalar MyScenario.node[89].appl 	generatedWSMs 	0
scalar MyScenario.node[89].appl 	receivedWSMs 	0
scalar MyScenario.node[89].appl 	generatedBSMs 	0
scalar MyScenario.node[89].appl 	receivedBSMs 	0
scalar MyScenario.node[89].appl 	generatedWSAs 	0
scalar MyScenario.node[89].appl 	receivedWSAs 	0
scalar MyScenario.node[89].nic.phy80211p 	busyTime 	0
scalar MyScenario.node[89].nic.mac1609_4 	ReceivedUnicastPackets 	0
scalar MyScenario.node[89].nic.mac1609_4 	ReceivedBroadcasts 	0
scalar MyScenario.node[89].nic.mac1609_4 	SentPackets 	0
scalar MyScenario.node[89].nic.mac1609_4 	SNIRLostPackets 	0
scalar MyScenario.node[89].nic.mac1609_4 	RXTXLostPackets 	0
scalar MyScenario.node[89].nic.mac1609_4 	TotalLostPackets 	0
scalar MyScenario.node[89].nic.mac1609_4 	DroppedPacketsInMac 	0
scalar MyScenario.node[89].nic.mac1609_4 	TooLittleTime 	0
scalar MyScenario.node[89].nic.mac1609_4 	TimesIntoBackoff 	0
scalar MyScenario.node[89].nic.mac1609_4 	SlotsBackoff 	0
scalar MyScenario.node[89].nic.mac1609_4 	NumInternalContention 	0
scalar MyScenario.node[89].nic.mac1609_4 	totalBusyTime 	0
scalar MyScenario.node[89].veinsmobility 	startTime 	1
scalar MyScenario.node[89].veinsmobility 	totalTime 	20
scalar MyScenario.node[89].veinsmobility 	stopTime 	22
scalar MyScenario.node[89].veinsmobility 	minSpeed 	1.4128213726915
scalar MyScenario.node[89].veinsmobility 	maxSpeed 	13.81404956223
scalar MyScenario.node[89].veinsmobility 	totalDistance 	185.34912247372
scalar MyScenario.node[89].veinsmobility 	totalCO2Emission 	75.968464339463
scalar MyScenario.node[213].appl 	generatedWSMs 	1
scalar MyScenario.node[213].appl 	receivedWSMs 	1
scalar MyScenario.node[213].appl 	generatedBSMs 	0
scalar MyScenario.node[213].appl 	receivedBSMs 	0
scalar MyScenario.node[213].appl 	generatedWSAs 	0
scalar MyScenario.node[213].appl 	receivedWSAs 	0
scalar MyScenario.node[213].nic.phy80211p 	busyTime 	0.00015873684210526
scalar MyScenario.node[213].nic.mac1609_4 	ReceivedUnicastPackets 	0
scalar MyScenario.node[213].nic.mac1609_4 	ReceivedBroadcasts 	1
scalar MyScenario.node[213].nic.mac1609_4 	SentPackets 	1
scalar MyScenario.node[213].nic.mac1609_4 	SNIRLostPackets 	12
scalar MyScenario.node[213].nic.mac1609_4 	RXTXLostPackets 	19
scalar MyScenario.node[213].nic.mac1609_4 	TotalLostPackets 	31
scalar MyScenario.node[213].nic.mac1609_4 	DroppedPacketsInMac 	0
scalar MyScenario.node[213].nic.mac1609_4 	TooLittleTime 	0
scalar MyScenario.node[213].nic.mac1609_4 	TimesIntoBackoff 	1
scalar MyScenario.node[213].nic.mac1609_4 	SlotsBackoff 	0
scalar MyScenario.node[213].nic.mac1609_4 	NumInternalContention 	0
scalar MyScenario.node[213].nic.mac1609_4 	totalBusyTime 	0.001625028825
scalar MyScenario.node[213].veinsmobility 	startTime 	4
scalar MyScenario.node[213].veinsmobility 	totalTime 	18
scalar MyScenario.node[213].veinsmobility 	stopTime 	23
scalar MyScenario.node[213].veinsmobility 	minSpeed 	1.7920558645623
scalar MyScenario.node[213].veinsmobility 	maxSpeed 	13.789587914618
scalar MyScenario.node[213].veinsmobility 	totalDistance 	184.88258510559
scalar MyScenario.node[213].veinsmobility 	totalCO2Emission 	69.172455866061
scalar MyScenario.node[298].appl 	generatedWSMs 	0
scalar MyScenario.node[298].appl 	receivedWSMs 	0
scalar MyScenario.node[298].appl 	generatedBSMs 	0
scalar MyScenario.node[298].appl 	receivedBSMs 	0
scalar MyScenario.node[298].appl 	generatedWSAs 	0
scalar MyScenario.node[298].appl 	receivedWSAs 	0
scalar MyScenario.node[298].nic.phy80211p 	busyTime 	0
scalar MyScenario.node[298].nic.mac1609_4 	ReceivedUnicastPackets 	0
scalar MyScenario.node[298].nic.mac1609_4 	ReceivedBroadcasts 	0
scalar MyScenario.node[298].nic.mac1609_4 	SentPackets 	0
scalar MyScenario.node[298].nic.mac1609_4 	SNIRLostPackets 	0
scalar MyScenario.node[298].nic.mac1609_4 	RXTXLostPackets 	0
scalar MyScenario.node[298].nic.mac1609_4 	TotalLostPackets 	0
scalar MyScenario.node[298].nic.mac1609_4 	DroppedPacketsInMac 	0
scalar MyScenario.node[298].nic.mac1609_4 	TooLittleTime 	0
scalar MyScenario.node[298].nic.mac1609_4 	TimesIntoBackoff 	0
scalar MyScenario.node[298].nic.mac1609_4 	SlotsBackoff 	0
scalar MyScenario.node[298].nic.mac1609_4 	NumInternalContention 	0
scalar MyScenario.node[298].nic.mac1609_4 	totalBusyTime 	0
scalar MyScenario.node[298].veinsmobility 	startTime 	14
scalar MyScenario.node[298].veinsmobility 	totalTime 	14
scalar MyScenario.node[298].veinsmobility 	stopTime 	29
scalar MyScenario.node[298].veinsmobility 	minSpeed 	12.675511854375
scalar MyScenario.node[298].veinsmobility 	maxSpeed 	13.674470253475
scalar MyScenario.node[298].veinsmobility 	totalDistance 	184.63452235195
scalar MyScenario.node[298].veinsmobility 	totalCO2Emission 	24.891979672103
scalar MyScenario.node[33].appl 	generatedWSMs 	1
scalar MyScenario.node[33].appl 	receivedWSMs 	3
scalar MyScenario.node[33].appl 	generatedBSMs 	0
scalar MyScenario.node[33].appl 	receivedBSMs 	0
scalar MyScenario.node[33].appl 	generatedWSAs 	0
scalar MyScenario.node[33].appl 	receivedWSAs 	0
scalar MyScenario.node[33].nic.phy80211p 	busyTime 	0.00024857142857143
scalar MyScenario.node[33].nic.mac1609_4 	ReceivedUnicastPackets 	0
scalar MyScenario.node[33].nic.mac1609_4 	ReceivedBroadcasts 	3
scalar MyScenario.node[33].nic.mac1609_4 	SentPackets 	1
scalar MyScenario.node[33].nic.mac1609_4 	SNIRLostPackets 	27
scalar MyScenario.node[33].nic.mac1609_4 	RXTXLostPackets 	5
scalar MyScenario.node[33].nic.mac1609_4 	TotalLostPackets 	32
scalar MyScenario.node[33].nic.mac1609_4 	DroppedPacketsInMac 	0
scalar MyScenario.node[33].nic.mac1609_4 	TooLittleTime 	0
scalar MyScenario.node[33].nic.mac1609_4 	TimesIntoBackoff 	1
scalar MyScenario.node[33].nic.mac1609_4 	SlotsBackoff 	2
scalar MyScenario.node[33].nic.mac1609_4 	NumInternalContention 	0
scalar MyScenario.node[33].nic.mac1609_4 	totalBusyTime 	0.002553018476
scalar MyScenario.node[33].veinsmobility 	startTime 	1
scalar MyScenario.node[33].veinsmobility 	totalTime 	27
scalar MyScenario.node[33].veinsmobility 	stopTime 	29
scalar MyScenario.node[33].veinsmobility 	minSpeed 	2.5192780286074
scalar MyScenario.node[33].veinsmobility 	maxSpeed 	13.880058775563
scalar MyScenario.node[33].veinsmobility 	totalDistance 	286.58824117674
scalar MyScenario.node[33].veinsmobility 	totalCO2Emission 	94.269795657497
scalar MyScenario.node[52].appl 	generatedWSMs 	1
scalar MyScenario.node[52].appl 	receivedWSMs 	1
scalar MyScenario.node[52].appl 	generatedBSMs 	0
scalar MyScenario.node[52].appl 	receivedBSMs 	0
scalar MyScenario.node[52].appl 	generatedWSAs 	0
scalar MyScenario.node[52].appl 	receivedWSAs 	0
scalar MyScenario.node[52].nic.phy80211p 	busyTime 	7.7333333333333e-06
scalar MyScenario.node[52].nic.mac1609_4 	ReceivedUnicastPackets 	0
scalar MyScenario.node[52].nic.mac1609_4 	ReceivedBroadcasts 	1
scalar MyScenario.node[52].nic.mac1609_4 	SentPackets 	1
scalar MyScenario.node[52].nic.mac1609_4 	SNIRLostPackets 	0
scalar MyScenario.node[52].nic.mac1609_4 	RXTXLostPackets 	19
scalar MyScenario.node[52].nic.mac1609_4 	TotalLostPackets 	19
scalar MyScenario.node[52].nic.mac1609_4 	DroppedPacketsInMac 	0
scalar MyScenario.node[52].nic.mac1609_4 	TooLittleTime 	0
scalar MyScenario.node[52].nic.mac1609_4 	TimesIntoBackoff 	1
scalar MyScenario.node[52].nic.mac1609_4 	SlotsBackoff 	0
scalar MyScenario.node[52].nic.mac1609_4 	NumInternalContention 	0
scalar MyScenario.node[52].nic.mac1609_4 	totalBusyTime 	0.000465020769
scalar MyScenario.node[52].veinsmobility 	startTime 	1
scalar MyScenario.node[52].veinsmobility 	totalTime 	29
scalar MyScenario.node[52].veinsmobility 	stopTime 	31
scalar MyScenario.node[52].veinsmobility 	minSpeed 	0.38482865243816
scalar MyScenario.node[52].veinsmobility 	maxSpeed 	13.81853160318
scalar MyScenario.node[52].veinsmobility 	totalDistance 	271.20829654222
scalar MyScenario.node[52].veinsmobility 	totalCO2Emission 	104.32494704668
scalar MyScenario.node[114].appl 	generatedWSMs 	0
scalar MyScenario.node[114].appl 	receivedWSMs 	0
scalar MyScenario.node[114].appl 	generatedBSMs 	0
scalar MyScenario.node[114].appl 	receivedBSMs 	0
scalar MyScenario.node[114].appl 	generatedWSAs 	0
scalar MyScenario.node[114].appl 	receivedWSAs 	0
scalar MyScenario.node[114].nic.phy80211p 	busyTime 	1.45e-05
scalar MyScenario.node[114].nic.mac1609_4 	ReceivedUnicastPackets 	0
scalar MyScenario.node[114].nic.mac1609_4 	ReceivedBroadcasts 	0
scalar MyScenario.node[114].nic.mac1609_4 	SentPackets 	0
scalar MyScenario.node[114].nic.mac1609_4 	SNIRLostPackets 	2
scalar MyScenario.node[114].nic.mac1609_4 	RXTXLostPackets 	0
scalar MyScenario.node[114].nic.mac1609_4 	TotalLostPackets 	2
scalar MyScenario.node[114].nic.mac1609_4 	DroppedPacketsInMac 	0
scalar MyScenario.node[114].nic.mac1609_4 	TooLittleTime 	0
scalar MyScenario.node[114].nic.mac1609_4 	TimesIntoBackoff 	0
scalar MyScenario.node[114].nic.mac1609_4 	SlotsBackoff 	0
scalar MyScenario.node[114].nic.mac1609_4 	NumInternalContention 	0
scalar MyScenario.node[114].nic.mac1609_4 	totalBusyTime 	0.000232
scalar MyScenario.node[114].veinsmobility 	startTime 	1
scalar MyScenario.node[114].veinsmobility 	totalTime 	31
scalar MyScenario.node[114].veinsmobility 	stopTime 	33
scalar MyScenario.node[114].veinsmobility 	minSpeed 	2.2493991798954
scalar MyScenario.node[114].veinsmobility 	maxSpeed 	13.842993845558
scalar MyScenario.node[114].veinsmobility 	totalDistance 	369.82946954697
scalar MyScenario.node[114].veinsmobility 	totalCO2Emission 	83.497927189865
scalar MyScenario.node[113].appl 	generatedWSMs 	0
scalar MyScenario.node[113].appl 	receivedWSMs 	0
scalar MyScenario.node[113].appl 	generatedBSMs 	0
scalar MyScenario.node[113].appl 	receivedBSMs 	0
scalar MyScenario.node[113].appl 	generatedWSAs 	0
scalar MyScenario.node[113].appl 	receivedWSAs 	0
scalar MyScenario.node[113].nic.phy80211p 	busyTime 	0
scalar MyScenario.node[113].nic.mac1609_4 	ReceivedUnicastPackets 	0
scalar MyScenario.node[113].nic.mac1609_4 	ReceivedBroadcasts 	0
scalar MyScenario.node[113].nic.mac1609_4 	SentPackets 	0
scalar MyScenario.node[113].nic.mac1609_4 	SNIRLostPackets 	0
scalar MyScenario.node[113].nic.mac1609_4 	RXTXLostPackets 	0
scalar MyScenario.node[113].nic.mac1609_4 	TotalLostPackets 	0
scalar MyScenario.node[113].nic.mac1609_4 	DroppedPacketsInMac 	0
scalar MyScenario.node[113].nic.mac1609_4 	TooLittleTime 	0
scalar MyScenario.node[113].nic.mac1609_4 	TimesIntoBackoff 	0
scalar MyScenario.node[113].nic.mac1609_4 	SlotsBackoff 	0
scalar MyScenario.node[113].nic.mac1609_4 	NumInternalContention 	0
scalar MyScenario.node[113].nic.mac1609_4 	totalBusyTime 	0
scalar MyScenario.node[113].veinsmobility 	startTime 	1
scalar MyScenario.node[113].veinsmobility 	totalTime 	32
scalar MyScenario.node[113].veinsmobility 	stopTime 	34
scalar MyScenario.node[113].veinsmobility 	minSpeed 	0.00010405008663116
scalar MyScenario.node[113].veinsmobility 	maxSpeed 	13.869484223542
scalar MyScenario.node[113].veinsmobility 	totalDistance 	277.02441523433
scalar MyScenario.node[113].veinsmobility 	totalCO2Emission 	98.301860005841
scalar MyScenario.node[35].appl 	generatedWSMs 	1
scalar MyScenario.node[35].appl 	receivedWSMs 	13
scalar MyScenario.node[35].appl 	generatedBSMs 	0
scalar MyScenario.node[35].appl 	receivedBSMs 	0
scalar MyScenario.node[35].appl 	generatedWSAs 	0
scalar MyScenario.node[35].appl 	receivedWSAs 	0
scalar MyScenario.node[35].nic.phy80211p 	busyTime 	0.000232
scalar MyScenario.node[35].nic.mac1609_4 	ReceivedUnicastPackets 	0
scalar MyScenario.node[35].nic.mac1609_4 	ReceivedBroadcasts 	13
scalar MyScenario.node[35].nic.mac1609_4 	SentPackets 	1
scalar MyScenario.node[35].nic.mac1609_4 	SNIRLostPackets 	20
scalar MyScenario.node[35].nic.mac1609_4 	RXTXLostPackets 	0
scalar MyScenario.node[35].nic.mac1609_4 	TotalLostPackets 	20
scalar MyScenario.node[35].nic.mac1609_4 	DroppedPacketsInMac 	0
scalar MyScenario.node[35].nic.mac1609_4 	TooLittleTime 	0
scalar MyScenario.node[35].nic.mac1609_4 	TimesIntoBackoff 	1
scalar MyScenario.node[35].nic.mac1609_4 	SlotsBackoff 	2
scalar MyScenario.node[35].nic.mac1609_4 	NumInternalContention 	0
scalar MyScenario.node[35].nic.mac1609_4 	totalBusyTime 	0.004177
scalar MyScenario.node[35].veinsmobility 	startTime 	1
scalar MyScenario.node[35].veinsmobility 	totalTime 	32
scalar MyScenario.node[35].veinsmobility 	stopTime 	34
scalar MyScenario.node[35].veinsmobility 	minSpeed 	1.9628698056098
scalar MyScenario.node[35].veinsmobility 	maxSpeed 	13.825718525541
scalar MyScenario.node[35].veinsmobility 	totalDistance 	373.59912007556
scalar MyScenario.node[35].veinsmobility 	totalCO2Emission 	98.338939596271
scalar MyScenario.node[285].appl 	generatedWSMs 	0
scalar MyScenario.node[285].appl 	receivedWSMs 	0
scalar MyScenario.node[285].appl 	generatedBSMs 	0
scalar MyScenario.node[285].appl 	receivedBSMs 	0
scalar MyScenario.node[285].appl 	generatedWSAs 	0
scalar MyScenario.node[285].appl 	receivedWSAs 	0
scalar MyScenario.node[285].nic.phy80211p 	busyTime 	0.00013748148148148
scalar MyScenario.node[285].nic.mac1609_4 	ReceivedUnicastPackets 	0
scalar MyScenario.node[285].nic.mac1609_4 	ReceivedBroadcasts 	0
scalar MyScenario.node[285].nic.mac1609_4 	SentPackets 	0
scalar MyScenario.node[285].nic.mac1609_4 	SNIRLostPackets 	16
scalar MyScenario.node[285].nic.mac1609_4 	RXTXLostPackets 	0
scalar MyScenario.node[285].nic.mac1609_4 	TotalLostPackets 	16
scalar MyScenario.node[285].nic.mac1609_4 	DroppedPacketsInMac 	0
scalar MyScenario.node[285].nic.mac1609_4 	TooLittleTime 	0
scalar MyScenario.node[285].nic.mac1609_4 	TimesIntoBackoff 	0
scalar MyScenario.node[285].nic.mac1609_4 	SlotsBackoff 	0
scalar MyScenario.node[285].nic.mac1609_4 	NumInternalContention 	0
scalar MyScenario.node[285].nic.mac1609_4 	totalBusyTime 	0.000232082106
scalar MyScenario.node[285].veinsmobility 	startTime 	7
scalar MyScenario.node[285].veinsmobility 	totalTime 	26
scalar MyScenario.node[285].veinsmobility 	stopTime 	34
scalar MyScenario.node[285].veinsmobility 	minSpeed 	2.4112192035886
scalar MyScenario.node[285].veinsmobility 	maxSpeed 	13.71765447869
scalar MyScenario.node[285].veinsmobility 	totalDistance 	283.65585316497
scalar MyScenario.node[285].veinsmobility 	totalCO2Emission 	85.468250903123
scalar MyScenario.node[135].appl 	generatedWSMs 	1
scalar MyScenario.node[135].appl 	receivedWSMs 	1
scalar MyScenario.node[135].appl 	generatedBSMs 	0
scalar MyScenario.node[135].appl 	receivedBSMs 	0
scalar MyScenario.node[135].appl 	generatedWSAs 	0
scalar MyScenario.node[135].appl 	receivedWSAs 	0
scalar MyScenario.node[135].nic.phy80211p 	busyTime 	1.9885714285714e-05
scalar MyScenario.node[135].nic.mac1609_4 	ReceivedUnicastPackets 	0
scalar MyScenario.node[135].nic.mac1609_4 	ReceivedBroadcasts 	1
scalar MyScenario.node[135].nic.mac1609_4 	SentPackets 	1
scalar MyScenario.node[135].nic.mac1609_4 	SNIRLostPackets 	2
scalar MyScenario.node[135].nic.mac1609_4 	RXTXLostPackets 	21
scalar MyScenario.node[135].nic.mac1609_4 	TotalLostPackets 	23
scalar MyScenario.node[135].nic.mac1609_4 	DroppedPacketsInMac 	0
scalar MyScenario.node[135].nic.mac1609_4 	TooLittleTime 	0
scalar MyScenario.node[135].nic.mac1609_4 	TimesIntoBackoff 	1
scalar MyScenario.node[135].nic.mac1609_4 	SlotsBackoff 	2
scalar MyScenario.node[135].nic.mac1609_4 	NumInternalContention 	0
scalar MyScenario.node[135].nic.mac1609_4 	totalBusyTime 	0.000697054419
scalar MyScenario.node[135].veinsmobility 	startTime 	1
scalar MyScenario.node[135].veinsmobility 	totalTime 	34
scalar MyScenario.node[135].veinsmobility 	stopTime 	36
scalar MyScenario.node[135].veinsmobility 	minSpeed 	1.8473797041923
scalar MyScenario.node[135].veinsmobility 	maxSpeed 	13.839234045614
scalar MyScenario.node[135].veinsmobility 	totalDistance 	361.35198246941
scalar MyScenario.node[135].veinsmobility 	totalCO2Emission 	120.48411254295
scalar MyScenario.node[13].appl 	generatedWSMs 	1
scalar MyScenario.node[13].appl 	receivedWSMs 	17
scalar MyScenario.node[13].appl 	generatedBSMs 	0
scalar MyScenario.node[13].appl 	receivedBSMs 	0
scalar MyScenario.node[13].appl 	generatedWSAs 	0
scalar MyScenario.node[13].appl 	receivedWSAs 	0
scalar MyScenario.node[13].nic.phy80211p 	busyTime 	0.00036088888888889
scalar MyScenario.node[13].nic.mac1609_4 	ReceivedUnicastPackets 	0
scalar MyScenario.node[13].nic.mac1609_4 	ReceivedBroadcasts 	17
scalar MyScenario.node[13].nic.mac1609_4 	SentPackets 	1
scalar MyScenario.node[13].nic.mac1609_4 	SNIRLostPackets 	39
scalar MyScenario.node[13].nic.mac1609_4 	RXTXLostPackets 	26
scalar MyScenario.node[13].nic.mac1609_4 	TotalLostPackets 	65
scalar MyScenario.node[13].nic.mac1609_4 	DroppedPacketsInMac 	0
scalar MyScenario.node[13].nic.mac1609_4 	TooLittleTime 	0
scalar MyScenario.node[13].nic.mac1609_4 	TimesIntoBackoff 	1
scalar MyScenario.node[13].nic.mac1609_4 	SlotsBackoff 	0
scalar MyScenario.node[13].nic.mac1609_4 	NumInternalContention 	0
scalar MyScenario.node[13].nic.mac1609_4 	totalBusyTime 	0.005801588938
scalar MyScenario.node[13].veinsmobility 	startTime 	1
scalar MyScenario.node[13].veinsmobility 	totalTime 	35
scalar MyScenario.node[13].veinsmobility 	stopTime 	37
scalar MyScenario.node[13].veinsmobility 	minSpeed 	1.5818678820273
scalar MyScenario.node[13].veinsmobility 	maxSpeed 	13.882308917749
scalar MyScenario.node[13].veinsmobility 	totalDistance 	380.79902714756
scalar MyScenario.node[13].veinsmobility 	totalCO2Emission 	120.92633246922
scalar MyScenario.node[120].appl 	generatedWSMs 	1
scalar MyScenario.node[120].appl 	receivedWSMs 	1
scalar MyScenario.node[120].appl 	generatedBSMs 	0
scalar MyScenario.node[120].appl 	receivedBSMs 	0
scalar MyScenario.node[120].appl 	generatedWSAs 	0
scalar MyScenario.node[120].appl 	receivedWSAs 	0
scalar MyScenario.node[120].nic.phy80211p 	busyTime 	3.0526315789474e-05
scalar MyScenario.node[120].nic.mac1609_4 	ReceivedUnicastPackets 	0
scalar MyScenario.node[120].nic.mac1609_4 	ReceivedBroadcasts 	1
scalar MyScenario.node[120].nic.mac1609_4 	SentPackets 	1
scalar MyScenario.node[120].nic.mac1609_4 	SNIRLostPackets 	4
scalar MyScenario.node[120].nic.mac1609_4 	RXTXLostPackets 	21
scalar MyScenario.node[120].nic.mac1609_4 	TotalLostPackets 	25
scalar MyScenario.node[120].nic.mac1609_4 	DroppedPacketsInMac 	0
scalar MyScenario.node[120].nic.mac1609_4 	TooLittleTime 	0
scalar MyScenario.node[120].nic.mac1609_4 	TimesIntoBackoff 	1
scalar MyScenario.node[120].nic.mac1609_4 	SlotsBackoff 	1
scalar MyScenario.node[120].nic.mac1609_4 	NumInternalContention 	0
scalar MyScenario.node[120].nic.mac1609_4 	totalBusyTime 	0.00069714492
scalar MyScenario.node[120].veinsmobility 	startTime 	1
scalar MyScenario.node[120].veinsmobility 	totalTime 	37
scalar MyScenario.node[120].veinsmobility 	stopTime 	39
scalar MyScenario.node[120].veinsmobility 	minSpeed 	0.11048005296386
scalar MyScenario.node[120].veinsmobility 	maxSpeed 	13.859511652077
scalar MyScenario.node[120].veinsmobility 	totalDistance 	378.16048762277
scalar MyScenario.node[120].veinsmobility 	totalCO2Emission 	120.97838407176
scalar MyScenario.node[204].appl 	generatedWSMs 	1
scalar MyScenario.node[204].appl 	receivedWSMs 	8
scalar MyScenario.node[204].appl 	generatedBSMs 	0
scalar MyScenario.node[204].appl 	receivedBSMs 	0
scalar MyScenario.node[204].appl 	generatedWSAs 	0
scalar MyScenario.node[204].appl 	receivedWSAs 	0
scalar MyScenario.node[204].nic.phy80211p 	busyTime 	0.00036733333333333
scalar MyScenario.node[204].nic.mac1609_4 	ReceivedUnicastPackets 	0
scalar MyScenario.node[204].nic.mac1609_4 	ReceivedBroadcasts 	8
scalar MyScenario.node[204].nic.mac1609_4 	SentPackets 	1
scalar MyScenario.node[204].nic.mac1609_4 	SNIRLostPackets 	49
scalar MyScenario.node[204].nic.mac1609_4 	RXTXLostPackets 	1
scalar MyScenario.node[204].nic.mac1609_4 	TotalLostPackets 	50
scalar MyScenario.node[204].nic.mac1609_4 	DroppedPacketsInMac 	0
scalar MyScenario.node[204].nic.mac1609_4 	TooLittleTime 	0
scalar MyScenario.node[204].nic.mac1609_4 	TimesIntoBackoff 	1
scalar MyScenario.node[204].nic.mac1609_4 	SlotsBackoff 	3
scalar MyScenario.node[204].nic.mac1609_4 	NumInternalContention 	0
scalar MyScenario.node[204].nic.mac1609_4 	totalBusyTime 	0.003249203704
scalar MyScenario.node[204].veinsmobility 	startTime 	4
scalar MyScenario.node[204].veinsmobility 	totalTime 	35
scalar MyScenario.node[204].veinsmobility 	stopTime 	40
scalar MyScenario.node[204].veinsmobility 	minSpeed 	0.13573549274812
scalar MyScenario.node[204].veinsmobility 	maxSpeed 	13.753607935645
scalar MyScenario.node[204].veinsmobility 	totalDistance 	284.52631810545
scalar MyScenario.node[204].veinsmobility 	totalCO2Emission 	122.2856676166
scalar MyScenario.node[50].appl 	generatedWSMs 	1
scalar MyScenario.node[50].appl 	receivedWSMs 	10
scalar MyScenario.node[50].appl 	generatedBSMs 	0
scalar MyScenario.node[50].appl 	receivedBSMs 	0
scalar MyScenario.node[50].appl 	generatedWSAs 	0
scalar MyScenario.node[50].appl 	receivedWSAs 	0
scalar MyScenario.node[50].nic.phy80211p 	busyTime 	0.000232
scalar MyScenario.node[50].nic.mac1609_4 	ReceivedUnicastPackets 	0
scalar MyScenario.node[50].nic.mac1609_4 	ReceivedBroadcasts 	10
scalar MyScenario.node[50].nic.mac1609_4 	SentPackets 	1
scalar MyScenario.node[50].nic.mac1609_4 	SNIRLostPackets 	29
scalar MyScenario.node[50].nic.mac1609_4 	RXTXLostPackets 	5
scalar MyScenario.node[50].nic.mac1609_4 	TotalLostPackets 	34
scalar MyScenario.node[50].nic.mac1609_4 	DroppedPacketsInMac 	0
scalar MyScenario.node[50].nic.mac1609_4 	TooLittleTime 	0
scalar MyScenario.node[50].nic.mac1609_4 	TimesIntoBackoff 	1
scalar MyScenario.node[50].nic.mac1609_4 	SlotsBackoff 	2
scalar MyScenario.node[50].nic.mac1609_4 	NumInternalContention 	0
scalar MyScenario.node[50].nic.mac1609_4 	totalBusyTime 	0.004177
scalar MyScenario.node[50].veinsmobility 	startTime 	1
scalar MyScenario.node[50].veinsmobility 	totalTime 	38
scalar MyScenario.node[50].veinsmobility 	stopTime 	40
scalar MyScenario.node[50].veinsmobility 	minSpeed 	2.5200286749052
scalar MyScenario.node[50].veinsmobility 	maxSpeed 	13.899602897069
scalar MyScenario.node[50].veinsmobility 	totalDistance 	467.21098318468
scalar MyScenario.node[50].veinsmobility 	totalCO2Emission 	111.48468029173
scalar MyScenario.node[17].appl 	generatedWSMs 	1
scalar MyScenario.node[17].appl 	receivedWSMs 	1
scalar MyScenario.node[17].appl 	generatedBSMs 	0
scalar MyScenario.node[17].appl 	receivedBSMs 	0
scalar MyScenario.node[17].appl 	generatedWSAs 	0
scalar MyScenario.node[17].appl 	receivedWSAs 	0
scalar MyScenario.node[17].nic.phy80211p 	busyTime 	4.64e-05
scalar MyScenario.node[17].nic.mac1609_4 	ReceivedUnicastPackets 	0
scalar MyScenario.node[17].nic.mac1609_4 	ReceivedBroadcasts 	1
scalar MyScenario.node[17].nic.mac1609_4 	SentPackets 	1
scalar MyScenario.node[17].nic.mac1609_4 	SNIRLostPackets 	7
scalar MyScenario.node[17].nic.mac1609_4 	RXTXLostPackets 	8
scalar MyScenario.node[17].nic.mac1609_4 	TotalLostPackets 	15
scalar MyScenario.node[17].nic.mac1609_4 	DroppedPacketsInMac 	0
scalar MyScenario.node[17].nic.mac1609_4 	TooLittleTime 	0
scalar MyScenario.node[17].nic.mac1609_4 	TimesIntoBackoff 	1
scalar MyScenario.node[17].nic.mac1609_4 	SlotsBackoff 	2
scalar MyScenario.node[17].nic.mac1609_4 	NumInternalContention 	0
scalar MyScenario.node[17].nic.mac1609_4 	totalBusyTime 	0.000929001892
scalar MyScenario.node[17].veinsmobility 	startTime 	1
scalar MyScenario.node[17].veinsmobility 	totalTime 	39
scalar MyScenario.node[17].veinsmobility 	stopTime 	41
scalar MyScenario.node[17].veinsmobility 	minSpeed 	2.0120292595122
scalar MyScenario.node[17].veinsmobility 	maxSpeed 	13.865360550676
scalar MyScenario.node[17].veinsmobility 	totalDistance 	461.29369275582
scalar MyScenario.node[17].veinsmobility 	totalCO2Emission 	120.6783048156
scalar MyScenario.node[34].appl 	generatedWSMs 	1
scalar MyScenario.node[34].appl 	receivedWSMs 	7
scalar MyScenario.node[34].appl 	generatedBSMs 	0
scalar MyScenario.node[34].appl 	receivedBSMs 	0
scalar MyScenario.node[34].appl 	generatedWSAs 	0
scalar MyScenario.node[34].appl 	receivedWSAs 	0
scalar MyScenario.node[34].nic.phy80211p 	busyTime 	0.0002842
scalar MyScenario.node[34].nic.mac1609_4 	ReceivedUnicastPackets 	0
scalar MyScenario.node[34].nic.mac1609_4 	ReceivedBroadcasts 	7
scalar MyScenario.node[34].nic.mac1609_4 	SentPackets 	1
scalar MyScenario.node[34].nic.mac1609_4 	SNIRLostPackets 	42
scalar MyScenario.node[34].nic.mac1609_4 	RXTXLostPackets 	26
scalar MyScenario.node[34].nic.mac1609_4 	TotalLostPackets 	68
scalar MyScenario.node[34].nic.mac1609_4 	DroppedPacketsInMac 	0
scalar MyScenario.node[34].nic.mac1609_4 	TooLittleTime 	0
scalar MyScenario.node[34].nic.mac1609_4 	TimesIntoBackoff 	1
scalar MyScenario.node[34].nic.mac1609_4 	SlotsBackoff 	0
scalar MyScenario.node[34].nic.mac1609_4 	NumInternalContention 	0
scalar MyScenario.node[34].nic.mac1609_4 	totalBusyTime 	0.003713535014
scalar MyScenario.node[34].veinsmobility 	startTime 	1
scalar MyScenario.node[34].veinsmobility 	totalTime 	39
scalar MyScenario.node[34].veinsmobility 	stopTime 	41
scalar MyScenario.node[34].veinsmobility 	minSpeed 	2.1921535094501
scalar MyScenario.node[34].veinsmobility 	maxSpeed 	13.867655666848
scalar MyScenario.node[34].veinsmobility 	totalDistance 	473.41119238148
scalar MyScenario.node[34].veinsmobility 	totalCO2Emission 	113.29455330217
scalar MyScenario.node[63].appl 	generatedWSMs 	1
scalar MyScenario.node[63].appl 	receivedWSMs 	19
scalar MyScenario.node[63].appl 	generatedBSMs 	0
scalar MyScenario.node[63].appl 	receivedBSMs 	0
scalar MyScenario.node[63].appl 	generatedWSAs 	0
scalar MyScenario.node[63].appl 	receivedWSAs 	0
scalar MyScenario.node[63].nic.phy80211p 	busyTime 	0.00027726829268293
scalar MyScenario.node[63].nic.mac1609_4 	ReceivedUnicastPackets 	0
scalar MyScenario.node[63].nic.mac1609_4 	ReceivedBroadcasts 	19
scalar MyScenario.node[63].nic.mac1609_4 	SentPackets 	1
scalar MyScenario.node[63].nic.mac1609_4 	SNIRLostPackets 	30
scalar MyScenario.node[63].nic.mac1609_4 	RXTXLostPackets 	18
scalar MyScenario.node[63].nic.mac1609_4 	TotalLostPackets 	48
scalar MyScenario.node[63].nic.mac1609_4 	DroppedPacketsInMac 	0
scalar MyScenario.node[63].nic.mac1609_4 	TooLittleTime 	0
scalar MyScenario.node[63].nic.mac1609_4 	TimesIntoBackoff 	1
scalar MyScenario.node[63].nic.mac1609_4 	SlotsBackoff 	2
scalar MyScenario.node[63].nic.mac1609_4 	NumInternalContention 	0
scalar MyScenario.node[63].nic.mac1609_4 	totalBusyTime 	0.006729083846
scalar MyScenario.node[63].veinsmobility 	startTime 	1
scalar MyScenario.node[63].veinsmobility 	totalTime 	40
scalar MyScenario.node[63].veinsmobility 	stopTime 	42
scalar MyScenario.node[63].veinsmobility 	minSpeed 	1.3123890910065
scalar MyScenario.node[63].veinsmobility 	maxSpeed 	13.854578806739
scalar MyScenario.node[63].veinsmobility 	totalDistance 	468.78111929251
scalar MyScenario.node[63].veinsmobility 	totalCO2Emission 	122.38595391611
scalar MyScenario.node[44].appl 	generatedWSMs 	1
scalar MyScenario.node[44].appl 	receivedWSMs 	1
scalar MyScenario.node[44].appl 	generatedBSMs 	0
scalar MyScenario.node[44].appl 	receivedBSMs 	0
scalar MyScenario.node[44].appl 	generatedWSAs 	0
scalar MyScenario.node[44].appl 	receivedWSAs 	0
scalar MyScenario.node[44].nic.phy80211p 	busyTime 	0.00013809523809524
scalar MyScenario.node[44].nic.mac1609_4 	ReceivedUnicastPackets 	0
scalar MyScenario.node[44].nic.mac1609_4 	ReceivedBroadcasts 	1
scalar MyScenario.node[44].nic.mac1609_4 	SentPackets 	1
scalar MyScenario.node[44].nic.mac1609_4 	SNIRLostPackets 	24
scalar MyScenario.node[44].nic.mac1609_4 	RXTXLostPackets 	10
scalar MyScenario.node[44].nic.mac1609_4 	TotalLostPackets 	34
scalar MyScenario.node[44].nic.mac1609_4 	DroppedPacketsInMac 	0
scalar MyScenario.node[44].nic.mac1609_4 	TooLittleTime 	0
scalar MyScenario.node[44].nic.mac1609_4 	TimesIntoBackoff 	1
scalar MyScenario.node[44].nic.mac1609_4 	SlotsBackoff 	1
scalar MyScenario.node[44].nic.mac1609_4 	NumInternalContention 	0
scalar MyScenario.node[44].nic.mac1609_4 	totalBusyTime 	0.002089000978
scalar MyScenario.node[44].veinsmobility 	startTime 	1
scalar MyScenario.node[44].veinsmobility 	totalTime 	41
scalar MyScenario.node[44].veinsmobility 	stopTime 	43
scalar MyScenario.node[44].veinsmobility 	minSpeed 	1.6214636549586
scalar MyScenario.node[44].veinsmobility 	maxSpeed 	13.893550560391
scalar MyScenario.node[44].veinsmobility 	totalDistance 	468.91280279341
scalar MyScenario.node[44].veinsmobility 	totalCO2Emission 	132.7776155455
scalar MyScenario.node[294].appl 	generatedWSMs 	1
scalar MyScenario.node[294].appl 	receivedWSMs 	12
scalar MyScenario.node[294].appl 	generatedBSMs 	0
scalar MyScenario.node[294].appl 	receivedBSMs 	0
scalar MyScenario.node[294].appl 	generatedWSAs 	0
scalar MyScenario.node[294].appl 	receivedWSAs 	0
scalar MyScenario.node[294].nic.phy80211p 	busyTime 	0.00032929032258064
scalar MyScenario.node[294].nic.mac1609_4 	ReceivedUnicastPackets 	0
scalar MyScenario.node[294].nic.mac1609_4 	ReceivedBroadcasts 	12
scalar MyScenario.node[294].nic.mac1609_4 	SentPackets 	1
scalar MyScenario.node[294].nic.mac1609_4 	SNIRLostPackets 	32
scalar MyScenario.node[294].nic.mac1609_4 	RXTXLostPackets 	5
scalar MyScenario.node[294].nic.mac1609_4 	TotalLostPackets 	37
scalar MyScenario.node[294].nic.mac1609_4 	DroppedPacketsInMac 	0
scalar MyScenario.node[294].nic.mac1609_4 	TooLittleTime 	0
scalar MyScenario.node[294].nic.mac1609_4 	TimesIntoBackoff 	1
scalar MyScenario.node[294].nic.mac1609_4 	SlotsBackoff 	2
scalar MyScenario.node[294].nic.mac1609_4 	NumInternalContention 	0
scalar MyScenario.node[294].nic.mac1609_4 	totalBusyTime 	0.004177
scalar MyScenario.node[294].veinsmobility 	startTime 	12
scalar MyScenario.node[294].veinsmobility 	totalTime 	30
scalar MyScenario.node[294].veinsmobility 	stopTime 	43
scalar MyScenario.node[294].veinsmobility 	minSpeed 	4.4283099361515
scalar MyScenario.node[294].veinsmobility 	maxSpeed 	13.769140612823
scalar MyScenario.node[294].veinsmobility 	totalDistance 	355.2036539154
scalar MyScenario.node[294].veinsmobility 	totalCO2Emission 	91.024379422178
scalar MyScenario.node[159].appl 	generatedWSMs 	0
scalar MyScenario.node[159].appl 	receivedWSMs 	0
scalar MyScenario.node[159].appl 	generatedBSMs 	0
scalar MyScenario.node[159].appl 	receivedBSMs 	0
scalar MyScenario.node[159].appl 	generatedWSAs 	0
scalar MyScenario.node[159].appl 	receivedWSAs 	0
scalar MyScenario.node[159].nic.phy80211p 	busyTime 	0
scalar MyScenario.node[159].nic.mac1609_4 	ReceivedUnicastPackets 	0
scalar MyScenario.node[159].nic.mac1609_4 	ReceivedBroadcasts 	0
scalar MyScenario.node[159].nic.mac1609_4 	SentPackets 	0
scalar MyScenario.node[159].nic.mac1609_4 	SNIRLostPackets 	0
scalar MyScenario.node[159].nic.mac1609_4 	RXTXLostPackets 	0
scalar MyScenario.node[159].nic.mac1609_4 	TotalLostPackets 	0
scalar MyScenario.node[159].nic.mac1609_4 	DroppedPacketsInMac 	0
scalar MyScenario.node[159].nic.mac1609_4 	TooLittleTime 	0
scalar MyScenario.node[159].nic.mac1609_4 	TimesIntoBackoff 	0
scalar MyScenario.node[159].nic.mac1609_4 	SlotsBackoff 	0
scalar MyScenario.node[159].nic.mac1609_4 	NumInternalContention 	0
scalar MyScenario.node[159].nic.mac1609_4 	totalBusyTime 	0
scalar MyScenario.node[159].veinsmobility 	startTime 	1
scalar MyScenario.node[159].veinsmobility 	totalTime 	42
scalar MyScenario.node[159].veinsmobility 	stopTime 	44
scalar MyScenario.node[159].veinsmobility 	minSpeed 	2.3847263781354
scalar MyScenario.node[159].veinsmobility 	maxSpeed 	13.831380818994
scalar MyScenario.node[159].veinsmobility 	totalDistance 	478.09842895207
scalar MyScenario.node[159].veinsmobility 	totalCO2Emission 	129.6440212745
scalar MyScenario.node[19].appl 	generatedWSMs 	1
scalar MyScenario.node[19].appl 	receivedWSMs 	5
scalar MyScenario.node[19].appl 	generatedBSMs 	0
scalar MyScenario.node[19].appl 	receivedBSMs 	0
scalar MyScenario.node[19].appl 	generatedWSAs 	0
scalar MyScenario.node[19].appl 	receivedWSAs 	0
scalar MyScenario.node[19].nic.phy80211p 	busyTime 	0.00015646511627907
scalar MyScenario.node[19].nic.mac1609_4 	ReceivedUnicastPackets 	0
scalar MyScenario.node[19].nic.mac1609_4 	ReceivedBroadcasts 	5
scalar MyScenario.node[19].nic.mac1609_4 	SentPackets 	1
scalar MyScenario.node[19].nic.mac1609_4 	SNIRLostPackets 	24
scalar MyScenario.node[19].nic.mac1609_4 	RXTXLostPackets 	1
scalar MyScenario.node[19].nic.mac1609_4 	TotalLostPackets 	25
scalar MyScenario.node[19].nic.mac1609_4 	DroppedPacketsInMac 	0
scalar MyScenario.node[19].nic.mac1609_4 	TooLittleTime 	0
scalar MyScenario.node[19].nic.mac1609_4 	TimesIntoBackoff 	1
scalar MyScenario.node[19].nic.mac1609_4 	SlotsBackoff 	3
scalar MyScenario.node[19].nic.mac1609_4 	NumInternalContention 	0
scalar MyScenario.node[19].nic.mac1609_4 	totalBusyTime 	0.002321
scalar MyScenario.node[19].veinsmobility 	startTime 	1
scalar MyScenario.node[19].veinsmobility 	totalTime 	42
scalar MyScenario.node[19].veinsmobility 	stopTime 	44
scalar MyScenario.node[19].veinsmobility 	minSpeed 	1.915732224565
scalar MyScenario.node[19].veinsmobility 	maxSpeed 	13.87403994645
scalar MyScenario.node[19].veinsmobility 	totalDistance 	459.44249630095
scalar MyScenario.node[19].veinsmobility 	totalCO2Emission 	150.50476109975
scalar MyScenario.node[207].appl 	generatedWSMs 	1
scalar MyScenario.node[207].appl 	receivedWSMs 	4
scalar MyScenario.node[207].appl 	generatedBSMs 	0
scalar MyScenario.node[207].appl 	receivedBSMs 	0
scalar MyScenario.node[207].appl 	generatedWSAs 	0
scalar MyScenario.node[207].appl 	receivedWSAs 	0
scalar MyScenario.node[207].nic.phy80211p 	busyTime 	0.00016409756097561
scalar MyScenario.node[207].nic.mac1609_4 	ReceivedUnicastPackets 	0
scalar MyScenario.node[207].nic.mac1609_4 	ReceivedBroadcasts 	4
scalar MyScenario.node[207].nic.mac1609_4 	SentPackets 	1
scalar MyScenario.node[207].nic.mac1609_4 	SNIRLostPackets 	25
scalar MyScenario.node[207].nic.mac1609_4 	RXTXLostPackets 	5
scalar MyScenario.node[207].nic.mac1609_4 	TotalLostPackets 	30
scalar MyScenario.node[207].nic.mac1609_4 	DroppedPacketsInMac 	0
scalar MyScenario.node[207].nic.mac1609_4 	TooLittleTime 	0
scalar MyScenario.node[207].nic.mac1609_4 	TimesIntoBackoff 	1
scalar MyScenario.node[207].nic.mac1609_4 	SlotsBackoff 	2
scalar MyScenario.node[207].nic.mac1609_4 	NumInternalContention 	0
scalar MyScenario.node[207].nic.mac1609_4 	totalBusyTime 	0.003249117857
scalar MyScenario.node[207].veinsmobility 	startTime 	4
scalar MyScenario.node[207].veinsmobility 	totalTime 	40
scalar MyScenario.node[207].veinsmobility 	stopTime 	45
scalar MyScenario.node[207].veinsmobility 	minSpeed 	1.6281490643742
scalar MyScenario.node[207].veinsmobility 	maxSpeed 	13.868130623875
scalar MyScenario.node[207].veinsmobility 	totalDistance 	472.3273471292
scalar MyScenario.node[207].veinsmobility 	totalCO2Emission 	121.3101014583
scalar MyScenario.node[7].appl 	generatedWSMs 	0
scalar MyScenario.node[7].appl 	receivedWSMs 	0
scalar MyScenario.node[7].appl 	generatedBSMs 	0
scalar MyScenario.node[7].appl 	receivedBSMs 	0
scalar MyScenario.node[7].appl 	generatedWSAs 	0
scalar MyScenario.node[7].appl 	receivedWSAs 	0
scalar MyScenario.node[7].nic.phy80211p 	busyTime 	0.000174
scalar MyScenario.node[7].nic.mac1609_4 	ReceivedUnicastPackets 	0
scalar MyScenario.node[7].nic.mac1609_4 	ReceivedBroadcasts 	0
scalar MyScenario.node[7].nic.mac1609_4 	SentPackets 	0
scalar MyScenario.node[7].nic.mac1609_4 	SNIRLostPackets 	33
scalar MyScenario.node[7].nic.mac1609_4 	RXTXLostPackets 	0
scalar MyScenario.node[7].nic.mac1609_4 	TotalLostPackets 	33
scalar MyScenario.node[7].nic.mac1609_4 	DroppedPacketsInMac 	0
scalar MyScenario.node[7].nic.mac1609_4 	TooLittleTime 	0
scalar MyScenario.node[7].nic.mac1609_4 	TimesIntoBackoff 	0
scalar MyScenario.node[7].nic.mac1609_4 	SlotsBackoff 	0
scalar MyScenario.node[7].nic.mac1609_4 	NumInternalContention 	0
scalar MyScenario.node[7].nic.mac1609_4 	totalBusyTime 	0.000928
scalar MyScenario.node[7].veinsmobility 	startTime 	1
scalar MyScenario.node[7].veinsmobility 	totalTime 	43
scalar MyScenario.node[7].veinsmobility 	stopTime 	45
scalar MyScenario.node[7].veinsmobility 	minSpeed 	2.3616525236284
scalar MyScenario.node[7].veinsmobility 	maxSpeed 	13.78504233784
scalar MyScenario.node[7].veinsmobility 	totalDistance 	479.78465499552
scalar MyScenario.node[7].veinsmobility 	totalCO2Emission 	154.02883376051
scalar MyScenario.node[14].appl 	generatedWSMs 	1
scalar MyScenario.node[14].appl 	receivedWSMs 	1
scalar MyScenario.node[14].appl 	generatedBSMs 	0
scalar MyScenario.node[14].appl 	receivedBSMs 	0
scalar MyScenario.node[14].appl 	generatedWSAs 	0
scalar MyScenario.node[14].appl 	receivedWSAs 	0
scalar MyScenario.node[14].nic.phy80211p 	busyTime 	9.28e-05
scalar MyScenario.node[14].nic.mac1609_4 	ReceivedUnicastPackets 	0
scalar MyScenario.node[14].nic.mac1609_4 	ReceivedBroadcasts 	1
scalar MyScenario.node[14].nic.mac1609_4 	SentPackets 	1
scalar MyScenario.node[14].nic.mac1609_4 	SNIRLostPackets 	17
scalar MyScenario.node[14].nic.mac1609_4 	RXTXLostPackets 	8
scalar MyScenario.node[14].nic.mac1609_4 	TotalLostPackets 	25
scalar MyScenario.node[14].nic.mac1609_4 	DroppedPacketsInMac 	0
scalar MyScenario.node[14].nic.mac1609_4 	TooLittleTime 	0
scalar MyScenario.node[14].nic.mac1609_4 	TimesIntoBackoff 	1
scalar MyScenario.node[14].nic.mac1609_4 	SlotsBackoff 	1
scalar MyScenario.node[14].nic.mac1609_4 	NumInternalContention 	0
scalar MyScenario.node[14].nic.mac1609_4 	totalBusyTime 	0.000929
scalar MyScenario.node[14].veinsmobility 	startTime 	1
scalar MyScenario.node[14].veinsmobility 	totalTime 	44
scalar MyScenario.node[14].veinsmobility 	stopTime 	46
scalar MyScenario.node[14].veinsmobility 	minSpeed 	1.2515221999152
scalar MyScenario.node[14].veinsmobility 	maxSpeed 	13.762732017133
scalar MyScenario.node[14].veinsmobility 	totalDistance 	474.39806463833
scalar MyScenario.node[14].veinsmobility 	totalCO2Emission 	130.24264014901
scalar MyScenario.node[36].appl 	generatedWSMs 	1
scalar MyScenario.node[36].appl 	receivedWSMs 	11
scalar MyScenario.node[36].appl 	generatedBSMs 	0
scalar MyScenario.node[36].appl 	receivedBSMs 	0
scalar MyScenario.node[36].appl 	generatedWSAs 	0
scalar MyScenario.node[36].appl 	receivedWSAs 	0
scalar MyScenario.node[36].nic.phy80211p 	busyTime 	0.00026808888888889
scalar MyScenario.node[36].nic.mac1609_4 	ReceivedUnicastPackets 	0
scalar MyScenario.node[36].nic.mac1609_4 	ReceivedBroadcasts 	11
scalar MyScenario.node[36].nic.mac1609_4 	SentPackets 	1
scalar MyScenario.node[36].nic.mac1609_4 	SNIRLostPackets 	41
scalar MyScenario.node[36].nic.mac1609_4 	RXTXLostPackets 	18
scalar MyScenario.node[36].nic.mac1609_4 	TotalLostPackets 	59
scalar MyScenario.node[36].nic.mac1609_4 	DroppedPacketsInMac 	0
scalar MyScenario.node[36].nic.mac1609_4 	TooLittleTime 	0
scalar MyScenario.node[36].nic.mac1609_4 	TimesIntoBackoff 	1
scalar MyScenario.node[36].nic.mac1609_4 	SlotsBackoff 	3
scalar MyScenario.node[36].nic.mac1609_4 	NumInternalContention 	0
scalar MyScenario.node[36].nic.mac1609_4 	totalBusyTime 	0.00440904941
scalar MyScenario.node[36].veinsmobility 	startTime 	1
scalar MyScenario.node[36].veinsmobility 	totalTime 	44
scalar MyScenario.node[36].veinsmobility 	stopTime 	46
scalar MyScenario.node[36].veinsmobility 	minSpeed 	1.5940941872774
scalar MyScenario.node[36].veinsmobility 	maxSpeed 	13.886844115332
scalar MyScenario.node[36].veinsmobility 	totalDistance 	484.00870222243
scalar MyScenario.node[36].veinsmobility 	totalCO2Emission 	133.8702769857
scalar MyScenario.node[208].appl 	generatedWSMs 	1
scalar MyScenario.node[208].appl 	receivedWSMs 	9
scalar MyScenario.node[208].appl 	generatedBSMs 	0
scalar MyScenario.node[208].appl 	receivedBSMs 	0
scalar MyScenario.node[208].appl 	generatedWSAs 	0
scalar MyScenario.node[208].appl 	receivedWSAs 	0
scalar MyScenario.node[208].nic.phy80211p 	busyTime 	0.00024857142857143
scalar MyScenario.node[208].nic.mac1609_4 	ReceivedUnicastPackets 	0
scalar MyScenario.node[208].nic.mac1609_4 	ReceivedBroadcasts 	9
scalar MyScenario.node[208].nic.mac1609_4 	SentPackets 	1
scalar MyScenario.node[208].nic.mac1609_4 	SNIRLostPackets 	36
scalar MyScenario.node[208].nic.mac1609_4 	RXTXLostPackets 	5
scalar MyScenario.node[208].nic.mac1609_4 	TotalLostPackets 	41
scalar MyScenario.node[208].nic.mac1609_4 	DroppedPacketsInMac 	0
scalar MyScenario.node[208].nic.mac1609_4 	TooLittleTime 	0
scalar MyScenario.node[208].nic.mac1609_4 	TimesIntoBackoff 	1
scalar MyScenario.node[208].nic.mac1609_4 	SlotsBackoff 	1
scalar MyScenario.node[208].nic.mac1609_4 	NumInternalContention 	0
scalar MyScenario.node[208].nic.mac1609_4 	totalBusyTime 	0.003713
scalar MyScenario.node[208].veinsmobility 	startTime 	4
scalar MyScenario.node[208].veinsmobility 	totalTime 	41
scalar MyScenario.node[208].veinsmobility 	stopTime 	46
scalar MyScenario.node[208].veinsmobility 	minSpeed 	1.8250593000092
scalar MyScenario.node[208].veinsmobility 	maxSpeed 	13.888499370869
scalar MyScenario.node[208].veinsmobility 	totalDistance 	459.5946460896
scalar MyScenario.node[208].veinsmobility 	totalCO2Emission 	139.96052631477
scalar MyScenario.node[192].appl 	generatedWSMs 	1
scalar MyScenario.node[192].appl 	receivedWSMs 	17
scalar MyScenario.node[192].appl 	generatedBSMs 	0
scalar MyScenario.node[192].appl 	receivedBSMs 	0
scalar MyScenario.node[192].appl 	generatedWSAs 	0
scalar MyScenario.node[192].appl 	receivedWSAs 	0
scalar MyScenario.node[192].nic.phy80211p 	busyTime 	0.00020438095238095
scalar MyScenario.node[192].nic.mac1609_4 	ReceivedUnicastPackets 	0
scalar MyScenario.node[192].nic.mac1609_4 	ReceivedBroadcasts 	17
scalar MyScenario.node[192].nic.mac1609_4 	SentPackets 	1
scalar MyScenario.node[192].nic.mac1609_4 	SNIRLostPackets 	20
scalar MyScenario.node[192].nic.mac1609_4 	RXTXLostPackets 	8
scalar MyScenario.node[192].nic.mac1609_4 	TotalLostPackets 	28
scalar MyScenario.node[192].nic.mac1609_4 	DroppedPacketsInMac 	0
scalar MyScenario.node[192].nic.mac1609_4 	TooLittleTime 	0
scalar MyScenario.node[192].nic.mac1609_4 	TimesIntoBackoff 	1
scalar MyScenario.node[192].nic.mac1609_4 	SlotsBackoff 	1
scalar MyScenario.node[192].nic.mac1609_4 	NumInternalContention 	0
scalar MyScenario.node[192].nic.mac1609_4 	totalBusyTime 	0.005569
scalar MyScenario.node[192].veinsmobility 	startTime 	4
scalar MyScenario.node[192].veinsmobility 	totalTime 	41
scalar MyScenario.node[192].veinsmobility 	stopTime 	46
scalar MyScenario.node[192].veinsmobility 	minSpeed 	1.3651533582481
scalar MyScenario.node[192].veinsmobility 	maxSpeed 	13.888872390171
scalar MyScenario.node[192].veinsmobility 	totalDistance 	482.88414198515
scalar MyScenario.node[192].veinsmobility 	totalCO2Emission 	124.7027327023
scalar MyScenario.node[305].appl 	generatedWSMs 	0
scalar MyScenario.node[305].appl 	receivedWSMs 	0
scalar MyScenario.node[305].appl 	generatedBSMs 	0
scalar MyScenario.node[305].appl 	receivedBSMs 	0
scalar MyScenario.node[305].appl 	generatedWSAs 	0
scalar MyScenario.node[305].appl 	receivedWSAs 	0
scalar MyScenario.node[305].nic.phy80211p 	busyTime 	3.8666666666667e-05
scalar MyScenario.node[305].nic.mac1609_4 	ReceivedUnicastPackets 	0
scalar MyScenario.node[305].nic.mac1609_4 	ReceivedBroadcasts 	0
scalar MyScenario.node[305].nic.mac1609_4 	SentPackets 	0
scalar MyScenario.node[305].nic.mac1609_4 	SNIRLostPackets 	4
scalar MyScenario.node[305].nic.mac1609_4 	RXTXLostPackets 	0
scalar MyScenario.node[305].nic.mac1609_4 	TotalLostPackets 	4
scalar MyScenario.node[305].nic.mac1609_4 	DroppedPacketsInMac 	0
scalar MyScenario.node[305].nic.mac1609_4 	TooLittleTime 	0
scalar MyScenario.node[305].nic.mac1609_4 	TimesIntoBackoff 	0
scalar MyScenario.node[305].nic.mac1609_4 	SlotsBackoff 	0
scalar MyScenario.node[305].nic.mac1609_4 	NumInternalContention 	0
scalar MyScenario.node[305].nic.mac1609_4 	totalBusyTime 	0.000464
scalar MyScenario.node[305].veinsmobility 	startTime 	23
scalar MyScenario.node[305].veinsmobility 	totalTime 	23
scalar MyScenario.node[305].veinsmobility 	stopTime 	47
scalar MyScenario.node[305].veinsmobility 	minSpeed 	0.020290238925314
scalar MyScenario.node[305].veinsmobility 	maxSpeed 	13.595436569676
scalar MyScenario.node[305].veinsmobility 	totalDistance 	176.32257833477
scalar MyScenario.node[305].veinsmobility 	totalCO2Emission 	41.261291743818
scalar MyScenario.node[82].appl 	generatedWSMs 	1
scalar MyScenario.node[82].appl 	receivedWSMs 	1
scalar MyScenario.node[82].appl 	generatedBSMs 	0
scalar MyScenario.node[82].appl 	receivedBSMs 	0
scalar MyScenario.node[82].appl 	generatedWSAs 	0
scalar MyScenario.node[82].appl 	receivedWSAs 	0
scalar MyScenario.node[82].nic.phy80211p 	busyTime 	2.0173913043478e-05
scalar MyScenario.node[82].nic.mac1609_4 	ReceivedUnicastPackets 	0
scalar MyScenario.node[82].nic.mac1609_4 	ReceivedBroadcasts 	1
scalar MyScenario.node[82].nic.mac1609_4 	SentPackets 	1
scalar MyScenario.node[82].nic.mac1609_4 	SNIRLostPackets 	3
scalar MyScenario.node[82].nic.mac1609_4 	RXTXLostPackets 	27
scalar MyScenario.node[82].nic.mac1609_4 	TotalLostPackets 	30
scalar MyScenario.node[82].nic.mac1609_4 	DroppedPacketsInMac 	0
scalar MyScenario.node[82].nic.mac1609_4 	TooLittleTime 	0
scalar MyScenario.node[82].nic.mac1609_4 	TimesIntoBackoff 	1
scalar MyScenario.node[82].nic.mac1609_4 	SlotsBackoff 	2
scalar MyScenario.node[82].nic.mac1609_4 	NumInternalContention 	0
scalar MyScenario.node[82].nic.mac1609_4 	totalBusyTime 	0.000929228381
scalar MyScenario.node[82].veinsmobility 	startTime 	1
scalar MyScenario.node[82].veinsmobility 	totalTime 	45
scalar MyScenario.node[82].veinsmobility 	stopTime 	47
scalar MyScenario.node[82].veinsmobility 	minSpeed 	0.83177598563563
scalar MyScenario.node[82].veinsmobility 	maxSpeed 	13.834715394932
scalar MyScenario.node[82].veinsmobility 	totalDistance 	477.13581774152
scalar MyScenario.node[82].veinsmobility 	totalCO2Emission 	144.88527898739
scalar MyScenario.node[176].appl 	generatedWSMs 	1
scalar MyScenario.node[176].appl 	receivedWSMs 	8
scalar MyScenario.node[176].appl 	generatedBSMs 	0
scalar MyScenario.node[176].appl 	receivedBSMs 	0
scalar MyScenario.node[176].appl 	generatedWSAs 	0
scalar MyScenario.node[176].appl 	receivedWSAs 	0
scalar MyScenario.node[176].nic.phy80211p 	busyTime 	0.00013617391304348
scalar MyScenario.node[176].nic.mac1609_4 	ReceivedUnicastPackets 	0
scalar MyScenario.node[176].nic.mac1609_4 	ReceivedBroadcasts 	8
scalar MyScenario.node[176].nic.mac1609_4 	SentPackets 	1
scalar MyScenario.node[176].nic.mac1609_4 	SNIRLostPackets 	19
scalar MyScenario.node[176].nic.mac1609_4 	RXTXLostPackets 	18
scalar MyScenario.node[176].nic.mac1609_4 	TotalLostPackets 	37
scalar MyScenario.node[176].nic.mac1609_4 	DroppedPacketsInMac 	0
scalar MyScenario.node[176].nic.mac1609_4 	TooLittleTime 	0
scalar MyScenario.node[176].nic.mac1609_4 	TimesIntoBackoff 	1
scalar MyScenario.node[176].nic.mac1609_4 	SlotsBackoff 	2
scalar MyScenario.node[176].nic.mac1609_4 	NumInternalContention 	0
scalar MyScenario.node[176].nic.mac1609_4 	totalBusyTime 	0.002785093556
scalar MyScenario.node[176].veinsmobility 	startTime 	1
scalar MyScenario.node[176].veinsmobility 	totalTime 	45
scalar MyScenario.node[176].veinsmobility 	stopTime 	47
scalar MyScenario.node[176].veinsmobility 	minSpeed 	0.32149544805759
scalar MyScenario.node[176].veinsmobility 	maxSpeed 	13.871705403808
scalar MyScenario.node[176].veinsmobility 	totalDistance 	484.67598111787
scalar MyScenario.node[176].veinsmobility 	totalCO2Emission 	136.40289326497
scalar MyScenario.node[165].appl 	generatedWSMs 	1
scalar MyScenario.node[165].appl 	receivedWSMs 	12
scalar MyScenario.node[165].appl 	generatedBSMs 	0
scalar MyScenario.node[165].appl 	receivedBSMs 	0
scalar MyScenario.node[165].appl 	generatedWSAs 	0
scalar MyScenario.node[165].appl 	receivedWSAs 	0
scalar MyScenario.node[165].nic.phy80211p 	busyTime 	8.9959183673469e-05
scalar MyScenario.node[165].nic.mac1609_4 	ReceivedUnicastPackets 	0
scalar MyScenario.node[165].nic.mac1609_4 	ReceivedBroadcasts 	12
scalar MyScenario.node[165].nic.mac1609_4 	SentPackets 	1
scalar MyScenario.node[165].nic.mac1609_4 	SNIRLostPackets 	7
scalar MyScenario.node[165].nic.mac1609_4 	RXTXLostPackets 	13
scalar MyScenario.node[165].nic.mac1609_4 	TotalLostPackets 	20
scalar MyScenario.node[165].nic.mac1609_4 	DroppedPacketsInMac 	0
scalar MyScenario.node[165].nic.mac1609_4 	TooLittleTime 	0
scalar MyScenario.node[165].nic.mac1609_4 	TimesIntoBackoff 	1
scalar MyScenario.node[165].nic.mac1609_4 	SlotsBackoff 	1
scalar MyScenario.node[165].nic.mac1609_4 	NumInternalContention 	0
scalar MyScenario.node[165].nic.mac1609_4 	totalBusyTime 	0.003713
scalar MyScenario.node[165].veinsmobility 	startTime 	1
scalar MyScenario.node[165].veinsmobility 	totalTime 	48
scalar MyScenario.node[165].veinsmobility 	stopTime 	50
scalar MyScenario.node[165].veinsmobility 	minSpeed 	2.4650408316869
scalar MyScenario.node[165].veinsmobility 	maxSpeed 	13.867245627986
scalar MyScenario.node[165].veinsmobility 	totalDistance 	570.91780755125
scalar MyScenario.node[165].veinsmobility 	totalCO2Emission 	143.03994739824
scalar MyScenario.node[193].appl 	generatedWSMs 	1
scalar MyScenario.node[193].appl 	receivedWSMs 	9
scalar MyScenario.node[193].appl 	generatedBSMs 	0
scalar MyScenario.node[193].appl 	receivedBSMs 	0
scalar MyScenario.node[193].appl 	generatedWSAs 	0
scalar MyScenario.node[193].appl 	receivedWSAs 	0
scalar MyScenario.node[193].nic.phy80211p 	busyTime 	0.00025217391304348
scalar MyScenario.node[193].nic.mac1609_4 	ReceivedUnicastPackets 	0
scalar MyScenario.node[193].nic.mac1609_4 	ReceivedBroadcasts 	9
scalar MyScenario.node[193].nic.mac1609_4 	SentPackets 	1
scalar MyScenario.node[193].nic.mac1609_4 	SNIRLostPackets 	41
scalar MyScenario.node[193].nic.mac1609_4 	RXTXLostPackets 	2
scalar MyScenario.node[193].nic.mac1609_4 	TotalLostPackets 	43
scalar MyScenario.node[193].nic.mac1609_4 	DroppedPacketsInMac 	0
scalar MyScenario.node[193].nic.mac1609_4 	TooLittleTime 	0
scalar MyScenario.node[193].nic.mac1609_4 	TimesIntoBackoff 	1
scalar MyScenario.node[193].nic.mac1609_4 	SlotsBackoff 	3
scalar MyScenario.node[193].nic.mac1609_4 	NumInternalContention 	0
scalar MyScenario.node[193].nic.mac1609_4 	totalBusyTime 	0.003481
scalar MyScenario.node[193].veinsmobility 	startTime 	4
scalar MyScenario.node[193].veinsmobility 	totalTime 	45
scalar MyScenario.node[193].veinsmobility 	stopTime 	50
scalar MyScenario.node[193].veinsmobility 	minSpeed 	1.5217718498316
scalar MyScenario.node[193].veinsmobility 	maxSpeed 	13.795779298176
scalar MyScenario.node[193].veinsmobility 	totalDistance 	479.26888354444
scalar MyScenario.node[193].veinsmobility 	totalCO2Emission 	174.26613407079
scalar MyScenario.node[98].appl 	generatedWSMs 	1
scalar MyScenario.node[98].appl 	receivedWSMs 	2
scalar MyScenario.node[98].appl 	generatedBSMs 	0
scalar MyScenario.node[98].appl 	receivedBSMs 	0
scalar MyScenario.node[98].appl 	generatedWSAs 	0
scalar MyScenario.node[98].appl 	receivedWSAs 	0
scalar MyScenario.node[98].nic.phy80211p 	busyTime 	0.00012310204081633
scalar MyScenario.node[98].nic.mac1609_4 	ReceivedUnicastPackets 	0
scalar MyScenario.node[98].nic.mac1609_4 	ReceivedBroadcasts 	2
scalar MyScenario.node[98].nic.mac1609_4 	SentPackets 	1
scalar MyScenario.node[98].nic.mac1609_4 	SNIRLostPackets 	24
scalar MyScenario.node[98].nic.mac1609_4 	RXTXLostPackets 	7
scalar MyScenario.node[98].nic.mac1609_4 	TotalLostPackets 	31
scalar MyScenario.node[98].nic.mac1609_4 	DroppedPacketsInMac 	0
scalar MyScenario.node[98].nic.mac1609_4 	TooLittleTime 	0
scalar MyScenario.node[98].nic.mac1609_4 	TimesIntoBackoff 	1
scalar MyScenario.node[98].nic.mac1609_4 	SlotsBackoff 	0
scalar MyScenario.node[98].nic.mac1609_4 	NumInternalContention 	0
scalar MyScenario.node[98].nic.mac1609_4 	totalBusyTime 	0.002321048109
scalar MyScenario.node[98].veinsmobility 	startTime 	1
scalar MyScenario.node[98].veinsmobility 	totalTime 	48
scalar MyScenario.node[98].veinsmobility 	stopTime 	50
scalar MyScenario.node[98].veinsmobility 	minSpeed 	2.4593461027602
scalar MyScenario.node[98].veinsmobility 	maxSpeed 	13.810376182222
scalar MyScenario.node[98].veinsmobility 	totalDistance 	557.69619860233
scalar MyScenario.node[98].veinsmobility 	totalCO2Emission 	149.08436499264
scalar MyScenario.node[4].appl 	generatedWSMs 	1
scalar MyScenario.node[4].appl 	receivedWSMs 	4
scalar MyScenario.node[4].appl 	generatedBSMs 	0
scalar MyScenario.node[4].appl 	receivedBSMs 	0
scalar MyScenario.node[4].appl 	generatedWSAs 	0
scalar MyScenario.node[4].appl 	receivedWSAs 	0
scalar MyScenario.node[4].nic.phy80211p 	busyTime 	7.1020408163265e-05
scalar MyScenario.node[4].nic.mac1609_4 	ReceivedUnicastPackets 	0
scalar MyScenario.node[4].nic.mac1609_4 	ReceivedBroadcasts 	4
scalar MyScenario.node[4].nic.mac1609_4 	SentPackets 	1
scalar MyScenario.node[4].nic.mac1609_4 	SNIRLostPackets 	11
scalar MyScenario.node[4].nic.mac1609_4 	RXTXLostPackets 	10
scalar MyScenario.node[4].nic.mac1609_4 	TotalLostPackets 	21
scalar MyScenario.node[4].nic.mac1609_4 	DroppedPacketsInMac 	0
scalar MyScenario.node[4].nic.mac1609_4 	TooLittleTime 	0
scalar MyScenario.node[4].nic.mac1609_4 	TimesIntoBackoff 	1
scalar MyScenario.node[4].nic.mac1609_4 	SlotsBackoff 	0
scalar MyScenario.node[4].nic.mac1609_4 	NumInternalContention 	0
scalar MyScenario.node[4].nic.mac1609_4 	totalBusyTime 	0.002089
scalar MyScenario.node[4].veinsmobility 	startTime 	1
scalar MyScenario.node[4].veinsmobility 	totalTime 	48
scalar MyScenario.node[4].veinsmobility 	stopTime 	50
scalar MyScenario.node[4].veinsmobility 	minSpeed 	2.3578134811949
scalar MyScenario.node[4].veinsmobility 	maxSpeed 	13.807852259465
scalar MyScenario.node[4].veinsmobility 	totalDistance 	571.54348646602
scalar MyScenario.node[4].veinsmobility 	totalCO2Emission 	140.49788131945
scalar MyScenario.node[99].appl 	generatedWSMs 	1
scalar MyScenario.node[99].appl 	receivedWSMs 	1
scalar MyScenario.node[99].appl 	generatedBSMs 	0
scalar MyScenario.node[99].appl 	receivedBSMs 	0
scalar MyScenario.node[99].appl 	generatedWSAs 	0
scalar MyScenario.node[99].appl 	receivedWSAs 	0
scalar MyScenario.node[99].nic.phy80211p 	busyTime 	1.8938775510204e-05
scalar MyScenario.node[99].nic.mac1609_4 	ReceivedUnicastPackets 	0
scalar MyScenario.node[99].nic.mac1609_4 	ReceivedBroadcasts 	1
scalar MyScenario.node[99].nic.mac1609_4 	SentPackets 	1
scalar MyScenario.node[99].nic.mac1609_4 	SNIRLostPackets 	3
scalar MyScenario.node[99].nic.mac1609_4 	RXTXLostPackets 	25
scalar MyScenario.node[99].nic.mac1609_4 	TotalLostPackets 	28
scalar MyScenario.node[99].nic.mac1609_4 	DroppedPacketsInMac 	0
scalar MyScenario.node[99].nic.mac1609_4 	TooLittleTime 	0
scalar MyScenario.node[99].nic.mac1609_4 	TimesIntoBackoff 	1
scalar MyScenario.node[99].nic.mac1609_4 	SlotsBackoff 	1
scalar MyScenario.node[99].nic.mac1609_4 	NumInternalContention 	0
scalar MyScenario.node[99].nic.mac1609_4 	totalBusyTime 	0.000697342603
scalar MyScenario.node[99].veinsmobility 	startTime 	1
scalar MyScenario.node[99].veinsmobility 	totalTime 	48
scalar MyScenario.node[99].veinsmobility 	stopTime 	50
scalar MyScenario.node[99].veinsmobility 	minSpeed 	2.0682226589648
scalar MyScenario.node[99].veinsmobility 	maxSpeed 	13.87644652538
scalar MyScenario.node[99].veinsmobility 	totalDistance 	567.3528140357
scalar MyScenario.node[99].veinsmobility 	totalCO2Emission 	148.05351360694
scalar MyScenario.node[1].appl 	generatedWSMs 	1
scalar MyScenario.node[1].appl 	receivedWSMs 	2
scalar MyScenario.node[1].appl 	generatedBSMs 	0
scalar MyScenario.node[1].appl 	receivedBSMs 	0
scalar MyScenario.node[1].appl 	generatedWSAs 	0
scalar MyScenario.node[1].appl 	receivedWSAs 	0
scalar MyScenario.node[1].nic.phy80211p 	busyTime 	0.00015776
scalar MyScenario.node[1].nic.mac1609_4 	ReceivedUnicastPackets 	0
scalar MyScenario.node[1].nic.mac1609_4 	ReceivedBroadcasts 	2
scalar MyScenario.node[1].nic.mac1609_4 	SentPackets 	1
scalar MyScenario.node[1].nic.mac1609_4 	SNIRLostPackets 	32
scalar MyScenario.node[1].nic.mac1609_4 	RXTXLostPackets 	27
scalar MyScenario.node[1].nic.mac1609_4 	TotalLostPackets 	59
scalar MyScenario.node[1].nic.mac1609_4 	DroppedPacketsInMac 	0
scalar MyScenario.node[1].nic.mac1609_4 	TooLittleTime 	0
scalar MyScenario.node[1].nic.mac1609_4 	TimesIntoBackoff 	1
scalar MyScenario.node[1].nic.mac1609_4 	SlotsBackoff 	2
scalar MyScenario.node[1].nic.mac1609_4 	NumInternalContention 	0
scalar MyScenario.node[1].nic.mac1609_4 	totalBusyTime 	0.002785251407
scalar MyScenario.node[1].veinsmobility 	startTime 	1
scalar MyScenario.node[1].veinsmobility 	totalTime 	49
scalar MyScenario.node[1].veinsmobility 	stopTime 	51
scalar MyScenario.node[1].veinsmobility 	minSpeed 	0.00024458359786481
scalar MyScenario.node[1].veinsmobility 	maxSpeed 	13.862087298278
scalar MyScenario.node[1].veinsmobility 	totalDistance 	373.11735844166
scalar MyScenario.node[1].veinsmobility 	totalCO2Emission 	158.25485012448
scalar MyScenario.node[166].appl 	generatedWSMs 	1
scalar MyScenario.node[166].appl 	receivedWSMs 	12
scalar MyScenario.node[166].appl 	generatedBSMs 	0
scalar MyScenario.node[166].appl 	receivedBSMs 	0
scalar MyScenario.node[166].appl 	generatedWSAs 	0
scalar MyScenario.node[166].appl 	receivedWSAs 	0
scalar MyScenario.node[166].nic.phy80211p 	busyTime 	0.00015466666666667
scalar MyScenario.node[166].nic.mac1609_4 	ReceivedUnicastPackets 	0
scalar MyScenario.node[166].nic.mac1609_4 	ReceivedBroadcasts 	12
scalar MyScenario.node[166].nic.mac1609_4 	SentPackets 	1
scalar MyScenario.node[166].nic.mac1609_4 	SNIRLostPackets 	22
scalar MyScenario.node[166].nic.mac1609_4 	RXTXLostPackets 	16
scalar MyScenario.node[166].nic.mac1609_4 	TotalLostPackets 	38
scalar MyScenario.node[166].nic.mac1609_4 	DroppedPacketsInMac 	0
scalar MyScenario.node[166].nic.mac1609_4 	TooLittleTime 	0
scalar MyScenario.node[166].nic.mac1609_4 	TimesIntoBackoff 	1
scalar MyScenario.node[166].nic.mac1609_4 	SlotsBackoff 	1
scalar MyScenario.node[166].nic.mac1609_4 	NumInternalContention 	0
scalar MyScenario.node[166].nic.mac1609_4 	totalBusyTime 	0.004409132492
scalar MyScenario.node[166].veinsmobility 	startTime 	1
scalar MyScenario.node[166].veinsmobility 	totalTime 	50
scalar MyScenario.node[166].veinsmobility 	stopTime 	52
scalar MyScenario.node[166].veinsmobility 	minSpeed 	2.2387920471141
scalar MyScenario.node[166].veinsmobility 	maxSpeed 	13.826828274224
scalar MyScenario.node[166].veinsmobility 	totalDistance 	559.37244101639
scalar MyScenario.node[166].veinsmobility 	totalCO2Emission 	168.29083392944
scalar MyScenario.node[53].appl 	generatedWSMs 	0
scalar MyScenario.node[53].appl 	receivedWSMs 	0
scalar MyScenario.node[53].appl 	generatedBSMs 	0
scalar MyScenario.node[53].appl 	receivedBSMs 	0
scalar MyScenario.node[53].appl 	generatedWSAs 	0
scalar MyScenario.node[53].appl 	receivedWSAs 	0
scalar MyScenario.node[53].nic.phy80211p 	busyTime 	1.3647058823529e-05
scalar MyScenario.node[53].nic.mac1609_4 	ReceivedUnicastPackets 	0
scalar MyScenario.node[53].nic.mac1609_4 	ReceivedBroadcasts 	0
scalar MyScenario.node[53].nic.mac1609_4 	SentPackets 	0
scalar MyScenario.node[53].nic.mac1609_4 	SNIRLostPackets 	3
scalar MyScenario.node[53].nic.mac1609_4 	RXTXLostPackets 	0
scalar MyScenario.node[53].nic.mac1609_4 	TotalLostPackets 	3
scalar MyScenario.node[53].nic.mac1609_4 	DroppedPacketsInMac 	0
scalar MyScenario.node[53].nic.mac1609_4 	TooLittleTime 	0
scalar MyScenario.node[53].nic.mac1609_4 	TimesIntoBackoff 	0
scalar MyScenario.node[53].nic.mac1609_4 	SlotsBackoff 	0
scalar MyScenario.node[53].nic.mac1609_4 	NumInternalContention 	0
scalar MyScenario.node[53].nic.mac1609_4 	totalBusyTime 	0.000232
scalar MyScenario.node[53].veinsmobility 	startTime 	1
scalar MyScenario.node[53].veinsmobility 	totalTime 	50
scalar MyScenario.node[53].veinsmobility 	stopTime 	52
scalar MyScenario.node[53].veinsmobility 	minSpeed 	1.4053120257799
scalar MyScenario.node[53].veinsmobility 	maxSpeed 	13.8714221881
scalar MyScenario.node[53].veinsmobility 	totalDistance 	563.33047268905
scalar MyScenario.node[53].veinsmobility 	totalCO2Emission 	168.46019455141
scalar MyScenario.node[107].appl 	generatedWSMs 	0
scalar MyScenario.node[107].appl 	receivedWSMs 	0
scalar MyScenario.node[107].appl 	generatedBSMs 	0
scalar MyScenario.node[107].appl 	receivedBSMs 	0
scalar MyScenario.node[107].appl 	generatedWSAs 	0
scalar MyScenario.node[107].appl 	receivedWSAs 	0
scalar MyScenario.node[107].nic.phy80211p 	busyTime 	3.6392156862745e-05
scalar MyScenario.node[107].nic.mac1609_4 	ReceivedUnicastPackets 	0
scalar MyScenario.node[107].nic.mac1609_4 	ReceivedBroadcasts 	0
scalar MyScenario.node[107].nic.mac1609_4 	SentPackets 	0
scalar MyScenario.node[107].nic.mac1609_4 	SNIRLostPackets 	8
scalar MyScenario.node[107].nic.mac1609_4 	RXTXLostPackets 	0
scalar MyScenario.node[107].nic.mac1609_4 	TotalLostPackets 	8
scalar MyScenario.node[107].nic.mac1609_4 	DroppedPacketsInMac 	0
scalar MyScenario.node[107].nic.mac1609_4 	TooLittleTime 	0
scalar MyScenario.node[107].nic.mac1609_4 	TimesIntoBackoff 	0
scalar MyScenario.node[107].nic.mac1609_4 	SlotsBackoff 	0
scalar MyScenario.node[107].nic.mac1609_4 	NumInternalContention 	0
scalar MyScenario.node[107].nic.mac1609_4 	totalBusyTime 	0.000696
scalar MyScenario.node[107].veinsmobility 	startTime 	1
scalar MyScenario.node[107].veinsmobility 	totalTime 	50
scalar MyScenario.node[107].veinsmobility 	stopTime 	52
scalar MyScenario.node[107].veinsmobility 	minSpeed 	0.00018999466993073
scalar MyScenario.node[107].veinsmobility 	maxSpeed 	13.750066417805
scalar MyScenario.node[107].veinsmobility 	totalDistance 	471.52493910959
scalar MyScenario.node[107].veinsmobility 	totalCO2Emission 	155.96725868947
scalar MyScenario.node[32].appl 	generatedWSMs 	1
scalar MyScenario.node[32].appl 	receivedWSMs 	13
scalar MyScenario.node[32].appl 	generatedBSMs 	0
scalar MyScenario.node[32].appl 	receivedBSMs 	0
scalar MyScenario.node[32].appl 	generatedWSAs 	0
scalar MyScenario.node[32].appl 	receivedWSAs 	0
scalar MyScenario.node[32].nic.phy80211p 	busyTime 	0.000116
scalar MyScenario.node[32].nic.mac1609_4 	ReceivedUnicastPackets 	0
scalar MyScenario.node[32].nic.mac1609_4 	ReceivedBroadcasts 	13
scalar MyScenario.node[32].nic.mac1609_4 	SentPackets 	1
scalar MyScenario.node[32].nic.mac1609_4 	SNIRLostPackets 	13
scalar MyScenario.node[32].nic.mac1609_4 	RXTXLostPackets 	1
scalar MyScenario.node[32].nic.mac1609_4 	TotalLostPackets 	14
scalar MyScenario.node[32].nic.mac1609_4 	DroppedPacketsInMac 	0
scalar MyScenario.node[32].nic.mac1609_4 	TooLittleTime 	0
scalar MyScenario.node[32].nic.mac1609_4 	TimesIntoBackoff 	1
scalar MyScenario.node[32].nic.mac1609_4 	SlotsBackoff 	0
scalar MyScenario.node[32].nic.mac1609_4 	NumInternalContention 	0
scalar MyScenario.node[32].nic.mac1609_4 	totalBusyTime 	0.004177
scalar MyScenario.node[32].veinsmobility 	startTime 	1
scalar MyScenario.node[32].veinsmobility 	totalTime 	51
scalar MyScenario.node[32].veinsmobility 	stopTime 	53
scalar MyScenario.node[32].veinsmobility 	minSpeed 	2.2519222781528
scalar MyScenario.node[32].veinsmobility 	maxSpeed 	13.872786136996
scalar MyScenario.node[32].veinsmobility 	totalDistance 	564.46835058247
scalar MyScenario.node[32].veinsmobility 	totalCO2Emission 	175.42863924274
scalar MyScenario.node[118].appl 	generatedWSMs 	0
scalar MyScenario.node[118].appl 	receivedWSMs 	0
scalar MyScenario.node[118].appl 	generatedBSMs 	0
scalar MyScenario.node[118].appl 	receivedBSMs 	0
scalar MyScenario.node[118].appl 	generatedWSAs 	0
scalar MyScenario.node[118].appl 	receivedWSAs 	0
scalar MyScenario.node[118].nic.phy80211p 	busyTime 	0
scalar MyScenario.node[118].nic.mac1609_4 	ReceivedUnicastPackets 	0
scalar MyScenario.node[118].nic.mac1609_4 	ReceivedBroadcasts 	0
scalar MyScenario.node[118].nic.mac1609_4 	SentPackets 	0
scalar MyScenario.node[118].nic.mac1609_4 	SNIRLostPackets 	0
scalar MyScenario.node[118].nic.mac1609_4 	RXTXLostPackets 	0
scalar MyScenario.node[118].nic.mac1609_4 	TotalLostPackets 	0
scalar MyScenario.node[118].nic.mac1609_4 	DroppedPacketsInMac 	0
scalar MyScenario.node[118].nic.mac1609_4 	TooLittleTime 	0
scalar MyScenario.node[118].nic.mac1609_4 	TimesIntoBackoff 	0
scalar MyScenario.node[118].nic.mac1609_4 	SlotsBackoff 	0
scalar MyScenario.node[118].nic.mac1609_4 	NumInternalContention 	0
scalar MyScenario.node[118].nic.mac1609_4 	totalBusyTime 	0
scalar MyScenario.node[118].veinsmobility 	startTime 	1
scalar MyScenario.node[118].veinsmobility 	totalTime 	51
scalar MyScenario.node[118].veinsmobility 	stopTime 	53
scalar MyScenario.node[118].veinsmobility 	minSpeed 	0.1087403556808
scalar MyScenario.node[118].veinsmobility 	maxSpeed 	13.82807075528
scalar MyScenario.node[118].veinsmobility 	totalDistance 	476.87040363402
scalar MyScenario.node[118].veinsmobility 	totalCO2Emission 	185.61922526015
scalar MyScenario.node[81].appl 	generatedWSMs 	1
scalar MyScenario.node[81].appl 	receivedWSMs 	6
scalar MyScenario.node[81].appl 	generatedBSMs 	0
scalar MyScenario.node[81].appl 	receivedBSMs 	0
scalar MyScenario.node[81].appl 	generatedWSAs 	0
scalar MyScenario.node[81].appl 	receivedWSAs 	0
scalar MyScenario.node[81].nic.phy80211p 	busyTime 	0.000174
scalar MyScenario.node[81].nic.mac1609_4 	ReceivedUnicastPackets 	0
scalar MyScenario.node[81].nic.mac1609_4 	ReceivedBroadcasts 	6
[...]
scalar MyScenario.node[184].nic.mac1609_4 	DroppedPacketsInMac 	0
scalar MyScenario.node[184].nic.mac1609_4 	TooLittleTime 	0
scalar MyScenario.node[184].nic.mac1609_4 	TimesIntoBackoff 	1
scalar MyScenario.node[184].nic.mac1609_4 	SlotsBackoff 	1
scalar MyScenario.node[184].nic.mac1609_4 	NumInternalContention 	0
scalar MyScenario.node[184].nic.mac1609_4 	totalBusyTime 	0.003945
scalar MyScenario.node[184].veinsmobility 	startTime 	1
scalar MyScenario.node[184].veinsmobility 	totalTime 	149
scalar MyScenario.node[184].veinsmobility 	stopTime 	151
scalar MyScenario.node[184].veinsmobility 	minSpeed 	0.00014734601659323
scalar MyScenario.node[184].veinsmobility 	maxSpeed 	13.867202676507
scalar MyScenario.node[184].veinsmobility 	totalDistance 	1360.7161923952
scalar MyScenario.node[184].veinsmobility 	totalCO2Emission 	440.5490799288
scalar MyScenario.node[237].appl 	generatedWSMs 	1
scalar MyScenario.node[237].appl 	receivedWSMs 	12
scalar MyScenario.node[237].appl 	generatedBSMs 	0
scalar MyScenario.node[237].appl 	receivedBSMs 	0
scalar MyScenario.node[237].appl 	generatedWSAs 	0
scalar MyScenario.node[237].appl 	receivedWSAs 	0
scalar MyScenario.node[237].nic.phy80211p 	busyTime 	6.427027027027e-05
scalar MyScenario.node[237].nic.mac1609_4 	ReceivedUnicastPackets 	0
scalar MyScenario.node[237].nic.mac1609_4 	ReceivedBroadcasts 	12
scalar MyScenario.node[237].nic.mac1609_4 	SentPackets 	1
scalar MyScenario.node[237].nic.mac1609_4 	SNIRLostPackets 	29
scalar MyScenario.node[237].nic.mac1609_4 	RXTXLostPackets 	4
scalar MyScenario.node[237].nic.mac1609_4 	TotalLostPackets 	33
scalar MyScenario.node[237].nic.mac1609_4 	DroppedPacketsInMac 	0
scalar MyScenario.node[237].nic.mac1609_4 	TooLittleTime 	0
scalar MyScenario.node[237].nic.mac1609_4 	TimesIntoBackoff 	1
scalar MyScenario.node[237].nic.mac1609_4 	SlotsBackoff 	2
scalar MyScenario.node[237].nic.mac1609_4 	NumInternalContention 	0
scalar MyScenario.node[237].nic.mac1609_4 	totalBusyTime 	0.004409086465
scalar MyScenario.node[237].veinsmobility 	startTime 	4
scalar MyScenario.node[237].veinsmobility 	totalTime 	147
scalar MyScenario.node[237].veinsmobility 	stopTime 	152
scalar MyScenario.node[237].veinsmobility 	minSpeed 	0.00055824777346074
scalar MyScenario.node[237].veinsmobility 	maxSpeed 	13.890624945774
scalar MyScenario.node[237].veinsmobility 	totalDistance 	1477.271770085
scalar MyScenario.node[237].veinsmobility 	totalCO2Emission 	455.03883989693
scalar MyScenario.node[43].appl 	generatedWSMs 	1
scalar MyScenario.node[43].appl 	receivedWSMs 	1
scalar MyScenario.node[43].appl 	generatedBSMs 	0
scalar MyScenario.node[43].appl 	receivedBSMs 	0
scalar MyScenario.node[43].appl 	generatedWSAs 	0
scalar MyScenario.node[43].appl 	receivedWSAs 	0
scalar MyScenario.node[43].nic.phy80211p 	busyTime 	2.2745098039216e-05
scalar MyScenario.node[43].nic.mac1609_4 	ReceivedUnicastPackets 	0
scalar MyScenario.node[43].nic.mac1609_4 	ReceivedBroadcasts 	1
scalar MyScenario.node[43].nic.mac1609_4 	SentPackets 	1
scalar MyScenario.node[43].nic.mac1609_4 	SNIRLostPackets 	14
scalar MyScenario.node[43].nic.mac1609_4 	RXTXLostPackets 	23
scalar MyScenario.node[43].nic.mac1609_4 	TotalLostPackets 	37
scalar MyScenario.node[43].nic.mac1609_4 	DroppedPacketsInMac 	0
scalar MyScenario.node[43].nic.mac1609_4 	TooLittleTime 	0
scalar MyScenario.node[43].nic.mac1609_4 	TimesIntoBackoff 	1
scalar MyScenario.node[43].nic.mac1609_4 	SlotsBackoff 	1
scalar MyScenario.node[43].nic.mac1609_4 	NumInternalContention 	0
scalar MyScenario.node[43].nic.mac1609_4 	totalBusyTime 	0.001625080393
scalar MyScenario.node[43].veinsmobility 	startTime 	1
scalar MyScenario.node[43].veinsmobility 	totalTime 	152
scalar MyScenario.node[43].veinsmobility 	stopTime 	154
scalar MyScenario.node[43].veinsmobility 	minSpeed 	4.86593208412e-12
scalar MyScenario.node[43].veinsmobility 	maxSpeed 	13.898262700974
scalar MyScenario.node[43].veinsmobility 	totalDistance 	1173.0939091952
scalar MyScenario.node[43].veinsmobility 	totalCO2Emission 	421.82789516176
scalar MyScenario.node[37].appl 	generatedWSMs 	1
scalar MyScenario.node[37].appl 	receivedWSMs 	5
scalar MyScenario.node[37].appl 	generatedBSMs 	0
scalar MyScenario.node[37].appl 	receivedBSMs 	0
scalar MyScenario.node[37].appl 	generatedWSAs 	0
scalar MyScenario.node[37].appl 	receivedWSAs 	0
scalar MyScenario.node[37].nic.phy80211p 	busyTime 	4.397385620915e-05
scalar MyScenario.node[37].nic.mac1609_4 	ReceivedUnicastPackets 	0
scalar MyScenario.node[37].nic.mac1609_4 	ReceivedBroadcasts 	5
scalar MyScenario.node[37].nic.mac1609_4 	SentPackets 	1
scalar MyScenario.node[37].nic.mac1609_4 	SNIRLostPackets 	24
scalar MyScenario.node[37].nic.mac1609_4 	RXTXLostPackets 	3
scalar MyScenario.node[37].nic.mac1609_4 	TotalLostPackets 	27
scalar MyScenario.node[37].nic.mac1609_4 	DroppedPacketsInMac 	0
scalar MyScenario.node[37].nic.mac1609_4 	TooLittleTime 	0
scalar MyScenario.node[37].nic.mac1609_4 	TimesIntoBackoff 	1
scalar MyScenario.node[37].nic.mac1609_4 	SlotsBackoff 	2
scalar MyScenario.node[37].nic.mac1609_4 	NumInternalContention 	0
scalar MyScenario.node[37].nic.mac1609_4 	totalBusyTime 	0.002785
scalar MyScenario.node[37].veinsmobility 	startTime 	1
scalar MyScenario.node[37].veinsmobility 	totalTime 	152
scalar MyScenario.node[37].veinsmobility 	stopTime 	154
scalar MyScenario.node[37].veinsmobility 	minSpeed 	0.00011797031666791
scalar MyScenario.node[37].veinsmobility 	maxSpeed 	13.846061119181
scalar MyScenario.node[37].veinsmobility 	totalDistance 	1371.4256964619
scalar MyScenario.node[37].veinsmobility 	totalCO2Emission 	461.87449280203
scalar MyScenario.node[129].appl 	generatedWSMs 	0
scalar MyScenario.node[129].appl 	receivedWSMs 	0
scalar MyScenario.node[129].appl 	generatedBSMs 	0
scalar MyScenario.node[129].appl 	receivedBSMs 	0
scalar MyScenario.node[129].appl 	generatedWSAs 	0
scalar MyScenario.node[129].appl 	receivedWSAs 	0
scalar MyScenario.node[129].nic.phy80211p 	busyTime 	0
scalar MyScenario.node[129].nic.mac1609_4 	ReceivedUnicastPackets 	0
scalar MyScenario.node[129].nic.mac1609_4 	ReceivedBroadcasts 	0
scalar MyScenario.node[129].nic.mac1609_4 	SentPackets 	0
scalar MyScenario.node[129].nic.mac1609_4 	SNIRLostPackets 	0
scalar MyScenario.node[129].nic.mac1609_4 	RXTXLostPackets 	0
scalar MyScenario.node[129].nic.mac1609_4 	TotalLostPackets 	0
scalar MyScenario.node[129].nic.mac1609_4 	DroppedPacketsInMac 	0
scalar MyScenario.node[129].nic.mac1609_4 	TooLittleTime 	0
scalar MyScenario.node[129].nic.mac1609_4 	TimesIntoBackoff 	0
scalar MyScenario.node[129].nic.mac1609_4 	SlotsBackoff 	0
scalar MyScenario.node[129].nic.mac1609_4 	NumInternalContention 	0
scalar MyScenario.node[129].nic.mac1609_4 	totalBusyTime 	0
scalar MyScenario.node[129].veinsmobility 	startTime 	1
scalar MyScenario.node[129].veinsmobility 	totalTime 	153
scalar MyScenario.node[129].veinsmobility 	stopTime 	155
scalar MyScenario.node[129].veinsmobility 	minSpeed 	8.1112595178542e-11
scalar MyScenario.node[129].veinsmobility 	maxSpeed 	13.880630413978
scalar MyScenario.node[129].veinsmobility 	totalDistance 	1369.0183127725
scalar MyScenario.node[129].veinsmobility 	totalCO2Emission 	453.86079031044
scalar MyScenario.node[211].appl 	generatedWSMs 	1
scalar MyScenario.node[211].appl 	receivedWSMs 	5
scalar MyScenario.node[211].appl 	generatedBSMs 	0
scalar MyScenario.node[211].appl 	receivedBSMs 	0
scalar MyScenario.node[211].appl 	generatedWSAs 	0
scalar MyScenario.node[211].appl 	receivedWSAs 	0
scalar MyScenario.node[211].nic.phy80211p 	busyTime 	8.0366013071895e-05
scalar MyScenario.node[211].nic.mac1609_4 	ReceivedUnicastPackets 	0
scalar MyScenario.node[211].nic.mac1609_4 	ReceivedBroadcasts 	5
scalar MyScenario.node[211].nic.mac1609_4 	SentPackets 	1
scalar MyScenario.node[211].nic.mac1609_4 	SNIRLostPackets 	48
scalar MyScenario.node[211].nic.mac1609_4 	RXTXLostPackets 	13
scalar MyScenario.node[211].nic.mac1609_4 	TotalLostPackets 	61
scalar MyScenario.node[211].nic.mac1609_4 	DroppedPacketsInMac 	0
scalar MyScenario.node[211].nic.mac1609_4 	TooLittleTime 	0
scalar MyScenario.node[211].nic.mac1609_4 	TimesIntoBackoff 	1
scalar MyScenario.node[211].nic.mac1609_4 	SlotsBackoff 	2
scalar MyScenario.node[211].nic.mac1609_4 	NumInternalContention 	0
scalar MyScenario.node[211].nic.mac1609_4 	totalBusyTime 	0.002785021328
scalar MyScenario.node[211].veinsmobility 	startTime 	4
scalar MyScenario.node[211].veinsmobility 	totalTime 	152
scalar MyScenario.node[211].veinsmobility 	stopTime 	157
scalar MyScenario.node[211].veinsmobility 	minSpeed 	2.6609844233937e-15
scalar MyScenario.node[211].veinsmobility 	maxSpeed 	13.897486727033
scalar MyScenario.node[211].veinsmobility 	totalDistance 	1169.8757666424
scalar MyScenario.node[211].veinsmobility 	totalCO2Emission 	377.70383492345
scalar MyScenario.node[301].appl 	generatedWSMs 	0
scalar MyScenario.node[301].appl 	receivedWSMs 	0
scalar MyScenario.node[301].appl 	generatedBSMs 	0
scalar MyScenario.node[301].appl 	receivedBSMs 	0
scalar MyScenario.node[301].appl 	generatedWSAs 	0
scalar MyScenario.node[301].appl 	receivedWSAs 	0
scalar MyScenario.node[301].nic.phy80211p 	busyTime 	1.168345323741e-05
scalar MyScenario.node[301].nic.mac1609_4 	ReceivedUnicastPackets 	0
scalar MyScenario.node[301].nic.mac1609_4 	ReceivedBroadcasts 	0
scalar MyScenario.node[301].nic.mac1609_4 	SentPackets 	0
scalar MyScenario.node[301].nic.mac1609_4 	SNIRLostPackets 	7
scalar MyScenario.node[301].nic.mac1609_4 	RXTXLostPackets 	0
scalar MyScenario.node[301].nic.mac1609_4 	TotalLostPackets 	7
scalar MyScenario.node[301].nic.mac1609_4 	DroppedPacketsInMac 	0
scalar MyScenario.node[301].nic.mac1609_4 	TooLittleTime 	0
scalar MyScenario.node[301].nic.mac1609_4 	TimesIntoBackoff 	0
scalar MyScenario.node[301].nic.mac1609_4 	SlotsBackoff 	0
scalar MyScenario.node[301].nic.mac1609_4 	NumInternalContention 	0
scalar MyScenario.node[301].nic.mac1609_4 	totalBusyTime 	0.000232
scalar MyScenario.node[301].veinsmobility 	startTime 	19
scalar MyScenario.node[301].veinsmobility 	totalTime 	138
scalar MyScenario.node[301].veinsmobility 	stopTime 	158
scalar MyScenario.node[301].veinsmobility 	minSpeed 	0.0045830319030722
scalar MyScenario.node[301].veinsmobility 	maxSpeed 	13.893722793693
scalar MyScenario.node[301].veinsmobility 	totalDistance 	1470.5346253065
scalar MyScenario.node[301].veinsmobility 	totalCO2Emission 	333.53494820949
scalar MyScenario.node[220].appl 	generatedWSMs 	0
scalar MyScenario.node[220].appl 	receivedWSMs 	0
scalar MyScenario.node[220].appl 	generatedBSMs 	0
scalar MyScenario.node[220].appl 	receivedBSMs 	0
scalar MyScenario.node[220].appl 	generatedWSAs 	0
scalar MyScenario.node[220].appl 	receivedWSAs 	0
scalar MyScenario.node[220].nic.phy80211p 	busyTime 	0
scalar MyScenario.node[220].nic.mac1609_4 	ReceivedUnicastPackets 	0
scalar MyScenario.node[220].nic.mac1609_4 	ReceivedBroadcasts 	0
scalar MyScenario.node[220].nic.mac1609_4 	SentPackets 	0
scalar MyScenario.node[220].nic.mac1609_4 	SNIRLostPackets 	0
scalar MyScenario.node[220].nic.mac1609_4 	RXTXLostPackets 	0
scalar MyScenario.node[220].nic.mac1609_4 	TotalLostPackets 	0
scalar MyScenario.node[220].nic.mac1609_4 	DroppedPacketsInMac 	0
scalar MyScenario.node[220].nic.mac1609_4 	TooLittleTime 	0
scalar MyScenario.node[220].nic.mac1609_4 	TimesIntoBackoff 	0
scalar MyScenario.node[220].nic.mac1609_4 	SlotsBackoff 	0
scalar MyScenario.node[220].nic.mac1609_4 	NumInternalContention 	0
scalar MyScenario.node[220].nic.mac1609_4 	totalBusyTime 	0
scalar MyScenario.node[220].veinsmobility 	startTime 	4
scalar MyScenario.node[220].veinsmobility 	totalTime 	154
scalar MyScenario.node[220].veinsmobility 	stopTime 	159
scalar MyScenario.node[220].veinsmobility 	minSpeed 	0.00066277268240158
scalar MyScenario.node[220].veinsmobility 	maxSpeed 	13.892221119115
scalar MyScenario.node[220].veinsmobility 	totalDistance 	1469.1038770596
scalar MyScenario.node[220].veinsmobility 	totalCO2Emission 	456.28581839708
scalar MyScenario.node[198].appl 	generatedWSMs 	1
scalar MyScenario.node[198].appl 	receivedWSMs 	9
scalar MyScenario.node[198].appl 	generatedBSMs 	0
scalar MyScenario.node[198].appl 	receivedBSMs 	0
scalar MyScenario.node[198].appl 	generatedWSAs 	0
scalar MyScenario.node[198].appl 	receivedWSAs 	0
scalar MyScenario.node[198].nic.phy80211p 	busyTime 	2.8076433121019e-05
scalar MyScenario.node[198].nic.mac1609_4 	ReceivedUnicastPackets 	0
scalar MyScenario.node[198].nic.mac1609_4 	ReceivedBroadcasts 	9
scalar MyScenario.node[198].nic.mac1609_4 	SentPackets 	1
scalar MyScenario.node[198].nic.mac1609_4 	SNIRLostPackets 	10
scalar MyScenario.node[198].nic.mac1609_4 	RXTXLostPackets 	6
scalar MyScenario.node[198].nic.mac1609_4 	TotalLostPackets 	16
scalar MyScenario.node[198].nic.mac1609_4 	DroppedPacketsInMac 	0
scalar MyScenario.node[198].nic.mac1609_4 	TooLittleTime 	0
scalar MyScenario.node[198].nic.mac1609_4 	TimesIntoBackoff 	1
scalar MyScenario.node[198].nic.mac1609_4 	SlotsBackoff 	1
scalar MyScenario.node[198].nic.mac1609_4 	NumInternalContention 	0
scalar MyScenario.node[198].nic.mac1609_4 	totalBusyTime 	0.003249014877
scalar MyScenario.node[198].veinsmobility 	startTime 	4
scalar MyScenario.node[198].veinsmobility 	totalTime 	156
scalar MyScenario.node[198].veinsmobility 	stopTime 	161
scalar MyScenario.node[198].veinsmobility 	minSpeed 	5.7158705433887e-09
scalar MyScenario.node[198].veinsmobility 	maxSpeed 	13.890692321397
scalar MyScenario.node[198].veinsmobility 	totalDistance 	1070.5657450669
scalar MyScenario.node[198].veinsmobility 	totalCO2Emission 	452.61487875665
scalar MyScenario.node[65].appl 	generatedWSMs 	0
scalar MyScenario.node[65].appl 	receivedWSMs 	0
scalar MyScenario.node[65].appl 	generatedBSMs 	0
scalar MyScenario.node[65].appl 	receivedBSMs 	0
scalar MyScenario.node[65].appl 	generatedWSAs 	0
scalar MyScenario.node[65].appl 	receivedWSAs 	0
scalar MyScenario.node[65].nic.phy80211p 	busyTime 	0
scalar MyScenario.node[65].nic.mac1609_4 	ReceivedUnicastPackets 	0
scalar MyScenario.node[65].nic.mac1609_4 	ReceivedBroadcasts 	0
scalar MyScenario.node[65].nic.mac1609_4 	SentPackets 	0
scalar MyScenario.node[65].nic.mac1609_4 	SNIRLostPackets 	0
scalar MyScenario.node[65].nic.mac1609_4 	RXTXLostPackets 	0
scalar MyScenario.node[65].nic.mac1609_4 	TotalLostPackets 	0
scalar MyScenario.node[65].nic.mac1609_4 	DroppedPacketsInMac 	0
scalar MyScenario.node[65].nic.mac1609_4 	TooLittleTime 	0
scalar MyScenario.node[65].nic.mac1609_4 	TimesIntoBackoff 	0
scalar MyScenario.node[65].nic.mac1609_4 	SlotsBackoff 	0
scalar MyScenario.node[65].nic.mac1609_4 	NumInternalContention 	0
scalar MyScenario.node[65].nic.mac1609_4 	totalBusyTime 	0
scalar MyScenario.node[65].veinsmobility 	startTime 	1
scalar MyScenario.node[65].veinsmobility 	totalTime 	167
scalar MyScenario.node[65].veinsmobility 	stopTime 	169
scalar MyScenario.node[65].veinsmobility 	minSpeed 	0.035496037548162
scalar MyScenario.node[65].veinsmobility 	maxSpeed 	13.87206616397
scalar MyScenario.node[65].veinsmobility 	totalDistance 	1662.5423970985
scalar MyScenario.node[65].veinsmobility 	totalCO2Emission 	522.79034925447
scalar MyScenario.node[132].appl 	generatedWSMs 	1
scalar MyScenario.node[132].appl 	receivedWSMs 	13
scalar MyScenario.node[132].appl 	generatedBSMs 	0
scalar MyScenario.node[132].appl 	receivedBSMs 	0
scalar MyScenario.node[132].appl 	generatedWSAs 	0
scalar MyScenario.node[132].appl 	receivedWSAs 	0
scalar MyScenario.node[132].nic.phy80211p 	busyTime 	6.1258426966292e-05
scalar MyScenario.node[132].nic.mac1609_4 	ReceivedUnicastPackets 	0
scalar MyScenario.node[132].nic.mac1609_4 	ReceivedBroadcasts 	13
scalar MyScenario.node[132].nic.mac1609_4 	SentPackets 	1
scalar MyScenario.node[132].nic.mac1609_4 	SNIRLostPackets 	34
scalar MyScenario.node[132].nic.mac1609_4 	RXTXLostPackets 	16
scalar MyScenario.node[132].nic.mac1609_4 	TotalLostPackets 	50
scalar MyScenario.node[132].nic.mac1609_4 	DroppedPacketsInMac 	0
scalar MyScenario.node[132].nic.mac1609_4 	TooLittleTime 	0
scalar MyScenario.node[132].nic.mac1609_4 	TimesIntoBackoff 	1
scalar MyScenario.node[132].nic.mac1609_4 	SlotsBackoff 	3
scalar MyScenario.node[132].nic.mac1609_4 	NumInternalContention 	0
scalar MyScenario.node[132].nic.mac1609_4 	totalBusyTime 	0.005105000765
scalar MyScenario.node[132].veinsmobility 	startTime 	1
scalar MyScenario.node[132].veinsmobility 	totalTime 	177
scalar MyScenario.node[132].veinsmobility 	stopTime 	179
scalar MyScenario.node[132].veinsmobility 	minSpeed 	2.4656178794119e-15
scalar MyScenario.node[132].veinsmobility 	maxSpeed 	13.868365116906
scalar MyScenario.node[132].veinsmobility 	totalDistance 	1165.3423038515
scalar MyScenario.node[132].veinsmobility 	totalCO2Emission 	438.97221089051
scalar MyScenario.node[306].appl 	generatedWSMs 	0
scalar MyScenario.node[306].appl 	receivedWSMs 	0
scalar MyScenario.node[306].appl 	generatedBSMs 	0
scalar MyScenario.node[306].appl 	receivedBSMs 	0
scalar MyScenario.node[306].appl 	generatedWSAs 	0
scalar MyScenario.node[306].appl 	receivedWSAs 	0
scalar MyScenario.node[306].nic.phy80211p 	busyTime 	0
scalar MyScenario.node[306].nic.mac1609_4 	ReceivedUnicastPackets 	0
scalar MyScenario.node[306].nic.mac1609_4 	ReceivedBroadcasts 	0
scalar MyScenario.node[306].nic.mac1609_4 	SentPackets 	0
scalar MyScenario.node[306].nic.mac1609_4 	SNIRLostPackets 	0
scalar MyScenario.node[306].nic.mac1609_4 	RXTXLostPackets 	0
scalar MyScenario.node[306].nic.mac1609_4 	TotalLostPackets 	0
scalar MyScenario.node[306].nic.mac1609_4 	DroppedPacketsInMac 	0
scalar MyScenario.node[306].nic.mac1609_4 	TooLittleTime 	0
scalar MyScenario.node[306].nic.mac1609_4 	TimesIntoBackoff 	0
scalar MyScenario.node[306].nic.mac1609_4 	SlotsBackoff 	0
scalar MyScenario.node[306].nic.mac1609_4 	NumInternalContention 	0
scalar MyScenario.node[306].nic.mac1609_4 	totalBusyTime 	0
scalar MyScenario.node[306].veinsmobility 	startTime 	29
scalar MyScenario.node[306].veinsmobility 	totalTime 	152
scalar MyScenario.node[306].veinsmobility 	stopTime 	182
scalar MyScenario.node[306].veinsmobility 	minSpeed 	0.036442654709566
scalar MyScenario.node[306].veinsmobility 	maxSpeed 	13.834360963199
scalar MyScenario.node[306].veinsmobility 	totalDistance 	1476.12509863
scalar MyScenario.node[306].veinsmobility 	totalCO2Emission 	453.65555462001
scalar MyScenario.node[112].appl 	generatedWSMs 	1
scalar MyScenario.node[112].appl 	receivedWSMs 	11
scalar MyScenario.node[112].appl 	generatedBSMs 	0
scalar MyScenario.node[112].appl 	receivedBSMs 	0
scalar MyScenario.node[112].appl 	generatedWSAs 	0
scalar MyScenario.node[112].appl 	receivedWSAs 	0
scalar MyScenario.node[112].nic.phy80211p 	busyTime 	4.2637837837838e-05
scalar MyScenario.node[112].nic.mac1609_4 	ReceivedUnicastPackets 	0
scalar MyScenario.node[112].nic.mac1609_4 	ReceivedBroadcasts 	11
scalar MyScenario.node[112].nic.mac1609_4 	SentPackets 	1
scalar MyScenario.node[112].nic.mac1609_4 	SNIRLostPackets 	23
scalar MyScenario.node[112].nic.mac1609_4 	RXTXLostPackets 	18
scalar MyScenario.node[112].nic.mac1609_4 	TotalLostPackets 	41
scalar MyScenario.node[112].nic.mac1609_4 	DroppedPacketsInMac 	0
scalar MyScenario.node[112].nic.mac1609_4 	TooLittleTime 	0
scalar MyScenario.node[112].nic.mac1609_4 	TimesIntoBackoff 	1
scalar MyScenario.node[112].nic.mac1609_4 	SlotsBackoff 	3
scalar MyScenario.node[112].nic.mac1609_4 	NumInternalContention 	0
scalar MyScenario.node[112].nic.mac1609_4 	totalBusyTime 	0.003945017728
scalar MyScenario.node[112].veinsmobility 	startTime 	1
scalar MyScenario.node[112].veinsmobility 	totalTime 	184
scalar MyScenario.node[112].veinsmobility 	stopTime 	186
scalar MyScenario.node[112].veinsmobility 	minSpeed 	9.0876107430852e-06
scalar MyScenario.node[112].veinsmobility 	maxSpeed 	13.871770565631
scalar MyScenario.node[112].veinsmobility 	totalDistance 	1468.327104732
scalar MyScenario.node[112].veinsmobility 	totalCO2Emission 	514.80569810452
