version 2
run General-35-20170829-17:49:37-8100
attr configname General
attr datetime 20170829-17:49:37
attr density 400
attr experiment General
attr inifile omnetpp.ini
attr iterationvars $density=400
attr iterationvars2 "$density=400, $repetition=5"
attr measurement $density=400
attr network com.liborio.pi.MyScenario
attr processid 8100
attr repetition 5
attr replication #5
attr resultdir results
attr runnumber 35
attr seedset 5
param **.coreDebug false
param **.debug false
param *.**.nic.mac1609_4.bitrate 6Mbps
param *.**.nic.mac1609_4.txPower 20mW
param *.**.nic.mac1609_4.useServiceChannel true
param *.**.nic.phy80211p.analogueModels "xmldoc(\"config.xml\")"
param *.**.nic.phy80211p.antenna "xmldoc(\"antenna.xml\", \"/root/Antenna[@id='monopole']\")"
param *.**.nic.phy80211p.decider "xmldoc(\"config.xml\")"
param *.**.nic.phy80211p.sensitivity -84.39dBm
param *.**.nic.phy80211p.thermalNoise -110dBm
param *.**.nic.phy80211p.usePropagationDelay true
param *.**.nic.phy80211p.useThermalNoise true
param *.annotations.draw true
param *.connectionManager.drawMaxIntfDist false
param *.connectionManager.maxInterfDist 2600m
param *.connectionManager.sendDirect true
param *.manager.autoShutdown true
param *.manager.host "\"localhost\""
param *.manager.launchConfig "xmldoc(string(${density = 100, 200, 300, 400})+\"_\"+ string(${repetition})+\".launchd.xml\")"
param *.manager.port 9999
param *.manager.updateInterval 1s
param *.node[*].appl.beaconInterval 1s
param *.node[*].appl.dataOnSch true
param *.node[*].appl.headerLength "80 bit"
param *.node[*].appl.isSource false
param *.node[*].appl.numMsgs 100
param *.node[*].appl.sendBeacons false
param *.node[*].appl.stopTrafficTime 130s
param *.node[*].appl.wsmInterval 3s
param *.node[*].applType "\"Flooding\""
param *.node[*].veinsmobility.x 0
param *.node[*].veinsmobility.y 0
param *.node[*].veinsmobility.z 1.895
param *.node[*].veinsmobilityType.debug true
param *.node[0].appl.isSource true
param *.playgroundSizeX 2500m
param *.playgroundSizeY 2500m
param *.playgroundSizeZ 50m

scalar . 	density 	400
scalar MyScenario.node[42].appl 	generatedWSMs 	0
scalar MyScenario.node[42].appl 	receivedWSMs 	0
scalar MyScenario.node[42].appl 	generatedBSMs 	0
scalar MyScenario.node[42].appl 	receivedBSMs 	0
scalar MyScenario.node[42].appl 	generatedWSAs 	0
scalar MyScenario.node[42].appl 	receivedWSAs 	0
scalar MyScenario.node[42].nic.phy80211p 	busyTime 	0
scalar MyScenario.node[42].nic.mac1609_4 	ReceivedUnicastPackets 	0
scalar MyScenario.node[42].nic.mac1609_4 	ReceivedBroadcasts 	0
scalar MyScenario.node[42].nic.mac1609_4 	SentPackets 	0
scalar MyScenario.node[42].nic.mac1609_4 	SNIRLostPackets 	0
scalar MyScenario.node[42].nic.mac1609_4 	RXTXLostPackets 	0
scalar MyScenario.node[42].nic.mac1609_4 	TotalLostPackets 	0
scalar MyScenario.node[42].nic.mac1609_4 	DroppedPacketsInMac 	0
scalar MyScenario.node[42].nic.mac1609_4 	TooLittleTime 	0
scalar MyScenario.node[42].nic.mac1609_4 	TimesIntoBackoff 	0
scalar MyScenario.node[42].nic.mac1609_4 	SlotsBackoff 	0
scalar MyScenario.node[42].nic.mac1609_4 	NumInternalContention 	0
scalar MyScenario.node[42].nic.mac1609_4 	totalBusyTime 	0
scalar MyScenario.node[42].veinsmobility 	startTime 	1
scalar MyScenario.node[42].veinsmobility 	totalTime 	9
scalar MyScenario.node[42].veinsmobility 	stopTime 	11
scalar MyScenario.node[42].veinsmobility 	minSpeed 	2.0071323813172
scalar MyScenario.node[42].veinsmobility 	maxSpeed 	13.803487708839
scalar MyScenario.node[42].veinsmobility 	totalDistance 	80.237450459204
scalar MyScenario.node[42].veinsmobility 	totalCO2Emission 	38.068800560677
scalar MyScenario.node[25].appl 	generatedWSMs 	1
scalar MyScenario.node[25].appl 	receivedWSMs 	1
scalar MyScenario.node[25].appl 	generatedBSMs 	0
scalar MyScenario.node[25].appl 	receivedBSMs 	0
scalar MyScenario.node[25].appl 	generatedWSAs 	0
scalar MyScenario.node[25].appl 	receivedWSAs 	0
scalar MyScenario.node[25].nic.phy80211p 	busyTime 	9.28e-05
scalar MyScenario.node[25].nic.mac1609_4 	ReceivedUnicastPackets 	0
scalar MyScenario.node[25].nic.mac1609_4 	ReceivedBroadcasts 	1
scalar MyScenario.node[25].nic.mac1609_4 	SentPackets 	1
scalar MyScenario.node[25].nic.mac1609_4 	SNIRLostPackets 	3
scalar MyScenario.node[25].nic.mac1609_4 	RXTXLostPackets 	15
scalar MyScenario.node[25].nic.mac1609_4 	TotalLostPackets 	18
scalar MyScenario.node[25].nic.mac1609_4 	DroppedPacketsInMac 	0
scalar MyScenario.node[25].nic.mac1609_4 	TooLittleTime 	0
scalar MyScenario.node[25].nic.mac1609_4 	TimesIntoBackoff 	1
scalar MyScenario.node[25].nic.mac1609_4 	SlotsBackoff 	0
scalar MyScenario.node[25].nic.mac1609_4 	NumInternalContention 	0
scalar MyScenario.node[25].nic.mac1609_4 	totalBusyTime 	0.000697053552
scalar MyScenario.node[25].veinsmobility 	startTime 	1
scalar MyScenario.node[25].veinsmobility 	totalTime 	9
scalar MyScenario.node[25].veinsmobility 	stopTime 	11
scalar MyScenario.node[25].veinsmobility 	minSpeed 	1.87504721859
scalar MyScenario.node[25].veinsmobility 	maxSpeed 	13.818352265377
scalar MyScenario.node[25].veinsmobility 	totalDistance 	85.734710418471
scalar MyScenario.node[25].veinsmobility 	totalCO2Emission 	39.558902527259
scalar MyScenario.node[176].appl 	generatedWSMs 	1
scalar MyScenario.node[176].appl 	receivedWSMs 	2
scalar MyScenario.node[176].appl 	generatedBSMs 	0
scalar MyScenario.node[176].appl 	receivedBSMs 	0
scalar MyScenario.node[176].appl 	generatedWSAs 	0
scalar MyScenario.node[176].appl 	receivedWSAs 	0
scalar MyScenario.node[176].nic.phy80211p 	busyTime 	0.0004408
scalar MyScenario.node[176].nic.mac1609_4 	ReceivedUnicastPackets 	0
scalar MyScenario.node[176].nic.mac1609_4 	ReceivedBroadcasts 	2
scalar MyScenario.node[176].nic.mac1609_4 	SentPackets 	1
scalar MyScenario.node[176].nic.mac1609_4 	SNIRLostPackets 	17
scalar MyScenario.node[176].nic.mac1609_4 	RXTXLostPackets 	9
scalar MyScenario.node[176].nic.mac1609_4 	TotalLostPackets 	26
scalar MyScenario.node[176].nic.mac1609_4 	DroppedPacketsInMac 	0
scalar MyScenario.node[176].nic.mac1609_4 	TooLittleTime 	0
scalar MyScenario.node[176].nic.mac1609_4 	TimesIntoBackoff 	1
scalar MyScenario.node[176].nic.mac1609_4 	SlotsBackoff 	3
scalar MyScenario.node[176].nic.mac1609_4 	NumInternalContention 	0
scalar MyScenario.node[176].nic.mac1609_4 	totalBusyTime 	0.001625036852
scalar MyScenario.node[176].veinsmobility 	startTime 	1
scalar MyScenario.node[176].veinsmobility 	totalTime 	9
scalar MyScenario.node[176].veinsmobility 	stopTime 	11
scalar MyScenario.node[176].veinsmobility 	minSpeed 	2.5316717984388
scalar MyScenario.node[176].veinsmobility 	maxSpeed 	13.871700290032
scalar MyScenario.node[176].veinsmobility 	totalDistance 	88.302797391287
scalar MyScenario.node[176].veinsmobility 	totalCO2Emission 	39.60066596777
scalar MyScenario.node[91].appl 	generatedWSMs 	0
scalar MyScenario.node[91].appl 	receivedWSMs 	0
scalar MyScenario.node[91].appl 	generatedBSMs 	0
scalar MyScenario.node[91].appl 	receivedBSMs 	0
scalar MyScenario.node[91].appl 	generatedWSAs 	0
scalar MyScenario.node[91].appl 	receivedWSAs 	0
scalar MyScenario.node[91].nic.phy80211p 	busyTime 	0.00031636363636364
scalar MyScenario.node[91].nic.mac1609_4 	ReceivedUnicastPackets 	0
scalar MyScenario.node[91].nic.mac1609_4 	ReceivedBroadcasts 	0
scalar MyScenario.node[91].nic.mac1609_4 	SentPackets 	0
scalar MyScenario.node[91].nic.mac1609_4 	SNIRLostPackets 	15
scalar MyScenario.node[91].nic.mac1609_4 	RXTXLostPackets 	0
scalar MyScenario.node[91].nic.mac1609_4 	TotalLostPackets 	15
scalar MyScenario.node[91].nic.mac1609_4 	DroppedPacketsInMac 	0
scalar MyScenario.node[91].nic.mac1609_4 	TooLittleTime 	0
scalar MyScenario.node[91].nic.mac1609_4 	TimesIntoBackoff 	0
scalar MyScenario.node[91].nic.mac1609_4 	SlotsBackoff 	0
scalar MyScenario.node[91].nic.mac1609_4 	NumInternalContention 	0
scalar MyScenario.node[91].nic.mac1609_4 	totalBusyTime 	0.000696
scalar MyScenario.node[91].veinsmobility 	startTime 	1
scalar MyScenario.node[91].veinsmobility 	totalTime 	10
scalar MyScenario.node[91].veinsmobility 	stopTime 	12
scalar MyScenario.node[91].veinsmobility 	minSpeed 	1.7786769387545
scalar MyScenario.node[91].veinsmobility 	maxSpeed 	13.486348578427
scalar MyScenario.node[91].veinsmobility 	totalDistance 	92.817661779128
scalar MyScenario.node[91].veinsmobility 	totalCO2Emission 	39.524768386264
scalar MyScenario.node[331].appl 	generatedWSMs 	0
scalar MyScenario.node[331].appl 	receivedWSMs 	0
scalar MyScenario.node[331].appl 	generatedBSMs 	0
scalar MyScenario.node[331].appl 	receivedBSMs 	0
scalar MyScenario.node[331].appl 	generatedWSAs 	0
scalar MyScenario.node[331].appl 	receivedWSAs 	0
scalar MyScenario.node[331].nic.phy80211p 	busyTime 	0
scalar MyScenario.node[331].nic.mac1609_4 	ReceivedUnicastPackets 	0
scalar MyScenario.node[331].nic.mac1609_4 	ReceivedBroadcasts 	0
scalar MyScenario.node[331].nic.mac1609_4 	SentPackets 	0
scalar MyScenario.node[331].nic.mac1609_4 	SNIRLostPackets 	0
scalar MyScenario.node[331].nic.mac1609_4 	RXTXLostPackets 	0
scalar MyScenario.node[331].nic.mac1609_4 	TotalLostPackets 	0
scalar MyScenario.node[331].nic.mac1609_4 	DroppedPacketsInMac 	0
scalar MyScenario.node[331].nic.mac1609_4 	TooLittleTime 	0
scalar MyScenario.node[331].nic.mac1609_4 	TimesIntoBackoff 	0
scalar MyScenario.node[331].nic.mac1609_4 	SlotsBackoff 	0
scalar MyScenario.node[331].nic.mac1609_4 	NumInternalContention 	0
scalar MyScenario.node[331].nic.mac1609_4 	totalBusyTime 	0
scalar MyScenario.node[331].veinsmobility 	startTime 	4
scalar MyScenario.node[331].veinsmobility 	totalTime 	8
scalar MyScenario.node[331].veinsmobility 	stopTime 	13
scalar MyScenario.node[331].veinsmobility 	minSpeed 	1.8714058220596
scalar MyScenario.node[331].veinsmobility 	maxSpeed 	13.395013764033
scalar MyScenario.node[331].veinsmobility 	totalDistance 	71.897407469954
scalar MyScenario.node[331].veinsmobility 	totalCO2Emission 	34.919785725142
scalar MyScenario.node[290].appl 	generatedWSMs 	0
scalar MyScenario.node[290].appl 	receivedWSMs 	0
scalar MyScenario.node[290].appl 	generatedBSMs 	0
scalar MyScenario.node[290].appl 	receivedBSMs 	0
scalar MyScenario.node[290].appl 	generatedWSAs 	0
scalar MyScenario.node[290].appl 	receivedWSAs 	0
scalar MyScenario.node[290].nic.phy80211p 	busyTime 	0
scalar MyScenario.node[290].nic.mac1609_4 	ReceivedUnicastPackets 	0
scalar MyScenario.node[290].nic.mac1609_4 	ReceivedBroadcasts 	0
scalar MyScenario.node[290].nic.mac1609_4 	SentPackets 	0
scalar MyScenario.node[290].nic.mac1609_4 	SNIRLostPackets 	0
scalar MyScenario.node[290].nic.mac1609_4 	RXTXLostPackets 	0
scalar MyScenario.node[290].nic.mac1609_4 	TotalLostPackets 	0
scalar MyScenario.node[290].nic.mac1609_4 	DroppedPacketsInMac 	0
scalar MyScenario.node[290].nic.mac1609_4 	TooLittleTime 	0
scalar MyScenario.node[290].nic.mac1609_4 	TimesIntoBackoff 	0
scalar MyScenario.node[290].nic.mac1609_4 	SlotsBackoff 	0
scalar MyScenario.node[290].nic.mac1609_4 	NumInternalContention 	0
scalar MyScenario.node[290].nic.mac1609_4 	totalBusyTime 	0
scalar MyScenario.node[290].veinsmobility 	startTime 	4
scalar MyScenario.node[290].veinsmobility 	totalTime 	9
scalar MyScenario.node[290].veinsmobility 	stopTime 	14
scalar MyScenario.node[290].veinsmobility 	minSpeed 	2.2823391267331
scalar MyScenario.node[290].veinsmobility 	maxSpeed 	13.333073103917
scalar MyScenario.node[290].veinsmobility 	totalDistance 	83.718428351965
scalar MyScenario.node[290].veinsmobility 	totalCO2Emission 	35.70237840091
scalar MyScenario.node[307].appl 	generatedWSMs 	1
scalar MyScenario.node[307].appl 	receivedWSMs 	6
scalar MyScenario.node[307].appl 	generatedBSMs 	0
scalar MyScenario.node[307].appl 	receivedBSMs 	0
scalar MyScenario.node[307].appl 	generatedWSAs 	0
scalar MyScenario.node[307].appl 	receivedWSAs 	0
scalar MyScenario.node[307].nic.phy80211p 	busyTime 	0.00052727272727273
scalar MyScenario.node[307].nic.mac1609_4 	ReceivedUnicastPackets 	0
scalar MyScenario.node[307].nic.mac1609_4 	ReceivedBroadcasts 	6
scalar MyScenario.node[307].nic.mac1609_4 	SentPackets 	1
scalar MyScenario.node[307].nic.mac1609_4 	SNIRLostPackets 	19
scalar MyScenario.node[307].nic.mac1609_4 	RXTXLostPackets 	13
scalar MyScenario.node[307].nic.mac1609_4 	TotalLostPackets 	32
scalar MyScenario.node[307].nic.mac1609_4 	DroppedPacketsInMac 	0
scalar MyScenario.node[307].nic.mac1609_4 	TooLittleTime 	0
scalar MyScenario.node[307].nic.mac1609_4 	TimesIntoBackoff 	1
scalar MyScenario.node[307].nic.mac1609_4 	SlotsBackoff 	1
scalar MyScenario.node[307].nic.mac1609_4 	NumInternalContention 	0
scalar MyScenario.node[307].nic.mac1609_4 	totalBusyTime 	0.002553
scalar MyScenario.node[307].veinsmobility 	startTime 	4
scalar MyScenario.node[307].veinsmobility 	totalTime 	10
scalar MyScenario.node[307].veinsmobility 	stopTime 	15
scalar MyScenario.node[307].veinsmobility 	minSpeed 	1.8867664334131
scalar MyScenario.node[307].veinsmobility 	maxSpeed 	13.840265989839
scalar MyScenario.node[307].veinsmobility 	totalDistance 	92.50300393078
scalar MyScenario.node[307].veinsmobility 	totalCO2Emission 	41.675306904037
scalar MyScenario.node[30].appl 	generatedWSMs 	0
scalar MyScenario.node[30].appl 	receivedWSMs 	0
scalar MyScenario.node[30].appl 	generatedBSMs 	0
scalar MyScenario.node[30].appl 	receivedBSMs 	0
scalar MyScenario.node[30].appl 	generatedWSAs 	0
scalar MyScenario.node[30].appl 	receivedWSAs 	0
scalar MyScenario.node[30].nic.phy80211p 	busyTime 	0
scalar MyScenario.node[30].nic.mac1609_4 	ReceivedUnicastPackets 	0
scalar MyScenario.node[30].nic.mac1609_4 	ReceivedBroadcasts 	0
scalar MyScenario.node[30].nic.mac1609_4 	SentPackets 	0
scalar MyScenario.node[30].nic.mac1609_4 	SNIRLostPackets 	0
scalar MyScenario.node[30].nic.mac1609_4 	RXTXLostPackets 	0
scalar MyScenario.node[30].nic.mac1609_4 	TotalLostPackets 	0
scalar MyScenario.node[30].nic.mac1609_4 	DroppedPacketsInMac 	0
scalar MyScenario.node[30].nic.mac1609_4 	TooLittleTime 	0
scalar MyScenario.node[30].nic.mac1609_4 	TimesIntoBackoff 	0
scalar MyScenario.node[30].nic.mac1609_4 	SlotsBackoff 	0
scalar MyScenario.node[30].nic.mac1609_4 	NumInternalContention 	0
scalar MyScenario.node[30].nic.mac1609_4 	totalBusyTime 	0
scalar MyScenario.node[30].veinsmobility 	startTime 	1
scalar MyScenario.node[30].veinsmobility 	totalTime 	17
scalar MyScenario.node[30].veinsmobility 	stopTime 	19
scalar MyScenario.node[30].veinsmobility 	minSpeed 	1.7422429820988
scalar MyScenario.node[30].veinsmobility 	maxSpeed 	13.797050170903
scalar MyScenario.node[30].veinsmobility 	totalDistance 	177.27604102007
scalar MyScenario.node[30].veinsmobility 	totalCO2Emission 	67.211029326918
scalar MyScenario.node[267].appl 	generatedWSMs 	0
scalar MyScenario.node[267].appl 	receivedWSMs 	0
scalar MyScenario.node[267].appl 	generatedBSMs 	0
scalar MyScenario.node[267].appl 	receivedBSMs 	0
scalar MyScenario.node[267].appl 	generatedWSAs 	0
scalar MyScenario.node[267].appl 	receivedWSAs 	0
scalar MyScenario.node[267].nic.phy80211p 	busyTime 	0
scalar MyScenario.node[267].nic.mac1609_4 	ReceivedUnicastPackets 	0
scalar MyScenario.node[267].nic.mac1609_4 	ReceivedBroadcasts 	0
scalar MyScenario.node[267].nic.mac1609_4 	SentPackets 	0
scalar MyScenario.node[267].nic.mac1609_4 	SNIRLostPackets 	0
scalar MyScenario.node[267].nic.mac1609_4 	RXTXLostPackets 	0
scalar MyScenario.node[267].nic.mac1609_4 	TotalLostPackets 	0
scalar MyScenario.node[267].nic.mac1609_4 	DroppedPacketsInMac 	0
scalar MyScenario.node[267].nic.mac1609_4 	TooLittleTime 	0
scalar MyScenario.node[267].nic.mac1609_4 	TimesIntoBackoff 	0
scalar MyScenario.node[267].nic.mac1609_4 	SlotsBackoff 	0
scalar MyScenario.node[267].nic.mac1609_4 	NumInternalContention 	0
scalar MyScenario.node[267].nic.mac1609_4 	totalBusyTime 	0
scalar MyScenario.node[267].veinsmobility 	startTime 	4
scalar MyScenario.node[267].veinsmobility 	totalTime 	19
scalar MyScenario.node[267].veinsmobility 	stopTime 	24
scalar MyScenario.node[267].veinsmobility 	minSpeed 	1.9417150892783
scalar MyScenario.node[267].veinsmobility 	maxSpeed 	13.581612568907
scalar MyScenario.node[267].veinsmobility 	totalDistance 	179.39307006957
scalar MyScenario.node[267].veinsmobility 	totalCO2Emission 	72.385470389688
scalar MyScenario.node[278].appl 	generatedWSMs 	0
scalar MyScenario.node[278].appl 	receivedWSMs 	0
scalar MyScenario.node[278].appl 	generatedBSMs 	0
scalar MyScenario.node[278].appl 	receivedBSMs 	0
scalar MyScenario.node[278].appl 	generatedWSAs 	0
scalar MyScenario.node[278].appl 	receivedWSAs 	0
scalar MyScenario.node[278].nic.phy80211p 	busyTime 	0
scalar MyScenario.node[278].nic.mac1609_4 	ReceivedUnicastPackets 	0
scalar MyScenario.node[278].nic.mac1609_4 	ReceivedBroadcasts 	0
scalar MyScenario.node[278].nic.mac1609_4 	SentPackets 	0
scalar MyScenario.node[278].nic.mac1609_4 	SNIRLostPackets 	0
scalar MyScenario.node[278].nic.mac1609_4 	RXTXLostPackets 	0
scalar MyScenario.node[278].nic.mac1609_4 	TotalLostPackets 	0
scalar MyScenario.node[278].nic.mac1609_4 	DroppedPacketsInMac 	0
scalar MyScenario.node[278].nic.mac1609_4 	TooLittleTime 	0
scalar MyScenario.node[278].nic.mac1609_4 	TimesIntoBackoff 	0
scalar MyScenario.node[278].nic.mac1609_4 	SlotsBackoff 	0
scalar MyScenario.node[278].nic.mac1609_4 	NumInternalContention 	0
scalar MyScenario.node[278].nic.mac1609_4 	totalBusyTime 	0
scalar MyScenario.node[278].veinsmobility 	startTime 	4
scalar MyScenario.node[278].veinsmobility 	totalTime 	24
scalar MyScenario.node[278].veinsmobility 	stopTime 	29
scalar MyScenario.node[278].veinsmobility 	minSpeed 	1.7993597684428
scalar MyScenario.node[278].veinsmobility 	maxSpeed 	13.844879244012
scalar MyScenario.node[278].veinsmobility 	totalDistance 	284.08144121617
scalar MyScenario.node[278].veinsmobility 	totalCO2Emission 	71.602561719884
scalar MyScenario.node[6].appl 	generatedWSMs 	0
scalar MyScenario.node[6].appl 	receivedWSMs 	0
scalar MyScenario.node[6].appl 	generatedBSMs 	0
scalar MyScenario.node[6].appl 	receivedBSMs 	0
scalar MyScenario.node[6].appl 	generatedWSAs 	0
scalar MyScenario.node[6].appl 	receivedWSAs 	0
scalar MyScenario.node[6].nic.phy80211p 	busyTime 	0
scalar MyScenario.node[6].nic.mac1609_4 	ReceivedUnicastPackets 	0
scalar MyScenario.node[6].nic.mac1609_4 	ReceivedBroadcasts 	0
scalar MyScenario.node[6].nic.mac1609_4 	SentPackets 	0
scalar MyScenario.node[6].nic.mac1609_4 	SNIRLostPackets 	0
scalar MyScenario.node[6].nic.mac1609_4 	RXTXLostPackets 	0
scalar MyScenario.node[6].nic.mac1609_4 	TotalLostPackets 	0
scalar MyScenario.node[6].nic.mac1609_4 	DroppedPacketsInMac 	0
scalar MyScenario.node[6].nic.mac1609_4 	TooLittleTime 	0
scalar MyScenario.node[6].nic.mac1609_4 	TimesIntoBackoff 	0
scalar MyScenario.node[6].nic.mac1609_4 	SlotsBackoff 	0
scalar MyScenario.node[6].nic.mac1609_4 	NumInternalContention 	0
scalar MyScenario.node[6].nic.mac1609_4 	totalBusyTime 	0
scalar MyScenario.node[6].veinsmobility 	startTime 	1
scalar MyScenario.node[6].veinsmobility 	totalTime 	27
scalar MyScenario.node[6].veinsmobility 	stopTime 	29
scalar MyScenario.node[6].veinsmobility 	minSpeed 	1.9281887229765
scalar MyScenario.node[6].veinsmobility 	maxSpeed 	13.806537624681
scalar MyScenario.node[6].veinsmobility 	totalDistance 	276.98568980691
scalar MyScenario.node[6].veinsmobility 	totalCO2Emission 	94.422898351372
scalar MyScenario.node[377].appl 	generatedWSMs 	0
scalar MyScenario.node[377].appl 	receivedWSMs 	0
scalar MyScenario.node[377].appl 	generatedBSMs 	0
scalar MyScenario.node[377].appl 	receivedBSMs 	0
scalar MyScenario.node[377].appl 	generatedWSAs 	0
scalar MyScenario.node[377].appl 	receivedWSAs 	0
scalar MyScenario.node[377].nic.phy80211p 	busyTime 	0
scalar MyScenario.node[377].nic.mac1609_4 	ReceivedUnicastPackets 	0
scalar MyScenario.node[377].nic.mac1609_4 	ReceivedBroadcasts 	0
scalar MyScenario.node[377].nic.mac1609_4 	SentPackets 	0
scalar MyScenario.node[377].nic.mac1609_4 	SNIRLostPackets 	0
scalar MyScenario.node[377].nic.mac1609_4 	RXTXLostPackets 	0
scalar MyScenario.node[377].nic.mac1609_4 	TotalLostPackets 	0
scalar MyScenario.node[377].nic.mac1609_4 	DroppedPacketsInMac 	0
scalar MyScenario.node[377].nic.mac1609_4 	TooLittleTime 	0
scalar MyScenario.node[377].nic.mac1609_4 	TimesIntoBackoff 	0
scalar MyScenario.node[377].nic.mac1609_4 	SlotsBackoff 	0
scalar MyScenario.node[377].nic.mac1609_4 	NumInternalContention 	0
scalar MyScenario.node[377].nic.mac1609_4 	totalBusyTime 	0
scalar MyScenario.node[377].veinsmobility 	startTime 	7
scalar MyScenario.node[377].veinsmobility 	totalTime 	24
scalar MyScenario.node[377].veinsmobility 	stopTime 	32
scalar MyScenario.node[377].veinsmobility 	minSpeed 	0.021348271403354
scalar MyScenario.node[377].veinsmobility 	maxSpeed 	13.342192188464
scalar MyScenario.node[377].veinsmobility 	totalDistance 	174.10169129541
scalar MyScenario.node[377].veinsmobility 	totalCO2Emission 	80.24260433826
scalar MyScenario.node[402].appl 	generatedWSMs 	0
scalar MyScenario.node[402].appl 	receivedWSMs 	0
scalar MyScenario.node[402].appl 	generatedBSMs 	0
scalar MyScenario.node[402].appl 	receivedBSMs 	0
scalar MyScenario.node[402].appl 	generatedWSAs 	0
scalar MyScenario.node[402].appl 	receivedWSAs 	0
scalar MyScenario.node[402].nic.phy80211p 	busyTime 	0.00017094736842105
scalar MyScenario.node[402].nic.mac1609_4 	ReceivedUnicastPackets 	0
scalar MyScenario.node[402].nic.mac1609_4 	ReceivedBroadcasts 	0
scalar MyScenario.node[402].nic.mac1609_4 	SentPackets 	0
scalar MyScenario.node[402].nic.mac1609_4 	SNIRLostPackets 	14
scalar MyScenario.node[402].nic.mac1609_4 	RXTXLostPackets 	0
scalar MyScenario.node[402].nic.mac1609_4 	TotalLostPackets 	14
scalar MyScenario.node[402].nic.mac1609_4 	DroppedPacketsInMac 	0
scalar MyScenario.node[402].nic.mac1609_4 	TooLittleTime 	0
scalar MyScenario.node[402].nic.mac1609_4 	TimesIntoBackoff 	0
scalar MyScenario.node[402].nic.mac1609_4 	SlotsBackoff 	0
scalar MyScenario.node[402].nic.mac1609_4 	NumInternalContention 	0
scalar MyScenario.node[402].nic.mac1609_4 	totalBusyTime 	0.000232
scalar MyScenario.node[402].veinsmobility 	startTime 	14
scalar MyScenario.node[402].veinsmobility 	totalTime 	18
scalar MyScenario.node[402].veinsmobility 	stopTime 	33
scalar MyScenario.node[402].veinsmobility 	minSpeed 	8.4272092171885
scalar MyScenario.node[402].veinsmobility 	maxSpeed 	13.857144042873
scalar MyScenario.node[402].veinsmobility 	totalDistance 	226.68140816051
scalar MyScenario.node[402].veinsmobility 	totalCO2Emission 	52.647675083179
scalar MyScenario.node[134].appl 	generatedWSMs 	0
scalar MyScenario.node[134].appl 	receivedWSMs 	0
scalar MyScenario.node[134].appl 	generatedBSMs 	0
scalar MyScenario.node[134].appl 	receivedBSMs 	0
scalar MyScenario.node[134].appl 	generatedWSAs 	0
scalar MyScenario.node[134].appl 	receivedWSAs 	0
scalar MyScenario.node[134].nic.phy80211p 	busyTime 	0
scalar MyScenario.node[134].nic.mac1609_4 	ReceivedUnicastPackets 	0
scalar MyScenario.node[134].nic.mac1609_4 	ReceivedBroadcasts 	0
scalar MyScenario.node[134].nic.mac1609_4 	SentPackets 	0
scalar MyScenario.node[134].nic.mac1609_4 	SNIRLostPackets 	0
scalar MyScenario.node[134].nic.mac1609_4 	RXTXLostPackets 	0
scalar MyScenario.node[134].nic.mac1609_4 	TotalLostPackets 	0
scalar MyScenario.node[134].nic.mac1609_4 	DroppedPacketsInMac 	0
scalar MyScenario.node[134].nic.mac1609_4 	TooLittleTime 	0
scalar MyScenario.node[134].nic.mac1609_4 	TimesIntoBackoff 	0
scalar MyScenario.node[134].nic.mac1609_4 	SlotsBackoff 	0
scalar MyScenario.node[134].nic.mac1609_4 	NumInternalContention 	0
scalar MyScenario.node[134].nic.mac1609_4 	totalBusyTime 	0
scalar MyScenario.node[134].veinsmobility 	startTime 	1
scalar MyScenario.node[134].veinsmobility 	totalTime 	32
scalar MyScenario.node[134].veinsmobility 	stopTime 	34
scalar MyScenario.node[134].veinsmobility 	minSpeed 	2.2800610841252
scalar MyScenario.node[134].veinsmobility 	maxSpeed 	13.888638113858
scalar MyScenario.node[134].veinsmobility 	totalDistance 	381.71120698895
scalar MyScenario.node[134].veinsmobility 	totalCO2Emission 	91.152044754734
scalar MyScenario.node[159].appl 	generatedWSMs 	1
scalar MyScenario.node[159].appl 	receivedWSMs 	8
scalar MyScenario.node[159].appl 	generatedBSMs 	0
scalar MyScenario.node[159].appl 	receivedBSMs 	0
scalar MyScenario.node[159].appl 	generatedWSAs 	0
scalar MyScenario.node[159].appl 	receivedWSAs 	0
scalar MyScenario.node[159].nic.phy80211p 	busyTime 	0.00024488888888889
scalar MyScenario.node[159].nic.mac1609_4 	ReceivedUnicastPackets 	0
scalar MyScenario.node[159].nic.mac1609_4 	ReceivedBroadcasts 	8
scalar MyScenario.node[159].nic.mac1609_4 	SentPackets 	1
scalar MyScenario.node[159].nic.mac1609_4 	SNIRLostPackets 	30
scalar MyScenario.node[159].nic.mac1609_4 	RXTXLostPackets 	4
scalar MyScenario.node[159].nic.mac1609_4 	TotalLostPackets 	34
scalar MyScenario.node[159].nic.mac1609_4 	DroppedPacketsInMac 	0
scalar MyScenario.node[159].nic.mac1609_4 	TooLittleTime 	0
scalar MyScenario.node[159].nic.mac1609_4 	TimesIntoBackoff 	1
scalar MyScenario.node[159].nic.mac1609_4 	SlotsBackoff 	0
scalar MyScenario.node[159].nic.mac1609_4 	NumInternalContention 	0
scalar MyScenario.node[159].nic.mac1609_4 	totalBusyTime 	0.003945060398
scalar MyScenario.node[159].veinsmobility 	startTime 	1
scalar MyScenario.node[159].veinsmobility 	totalTime 	35
scalar MyScenario.node[159].veinsmobility 	stopTime 	37
scalar MyScenario.node[159].veinsmobility 	minSpeed 	1.3264028257225
scalar MyScenario.node[159].veinsmobility 	maxSpeed 	13.869401627965
scalar MyScenario.node[159].veinsmobility 	totalDistance 	372.03069662027
scalar MyScenario.node[159].veinsmobility 	totalCO2Emission 	123.26469209851
scalar MyScenario.node[132].appl 	generatedWSMs 	0
scalar MyScenario.node[132].appl 	receivedWSMs 	0
scalar MyScenario.node[132].appl 	generatedBSMs 	0
scalar MyScenario.node[132].appl 	receivedBSMs 	0
scalar MyScenario.node[132].appl 	generatedWSAs 	0
scalar MyScenario.node[132].appl 	receivedWSAs 	0
scalar MyScenario.node[132].nic.phy80211p 	busyTime 	8.7783783783784e-05
scalar MyScenario.node[132].nic.mac1609_4 	ReceivedUnicastPackets 	0
scalar MyScenario.node[132].nic.mac1609_4 	ReceivedBroadcasts 	0
scalar MyScenario.node[132].nic.mac1609_4 	SentPackets 	0
scalar MyScenario.node[132].nic.mac1609_4 	SNIRLostPackets 	14
scalar MyScenario.node[132].nic.mac1609_4 	RXTXLostPackets 	0
scalar MyScenario.node[132].nic.mac1609_4 	TotalLostPackets 	14
scalar MyScenario.node[132].nic.mac1609_4 	DroppedPacketsInMac 	0
scalar MyScenario.node[132].nic.mac1609_4 	TooLittleTime 	0
scalar MyScenario.node[132].nic.mac1609_4 	TimesIntoBackoff 	0
scalar MyScenario.node[132].nic.mac1609_4 	SlotsBackoff 	0
scalar MyScenario.node[132].nic.mac1609_4 	NumInternalContention 	0
scalar MyScenario.node[132].nic.mac1609_4 	totalBusyTime 	0.001392
scalar MyScenario.node[132].veinsmobility 	startTime 	1
scalar MyScenario.node[132].veinsmobility 	totalTime 	36
scalar MyScenario.node[132].veinsmobility 	stopTime 	38
scalar MyScenario.node[132].veinsmobility 	minSpeed 	2.3723225336056
scalar MyScenario.node[132].veinsmobility 	maxSpeed 	13.876607114892
scalar MyScenario.node[132].veinsmobility 	totalDistance 	383.0097135253
scalar MyScenario.node[132].veinsmobility 	totalCO2Emission 	140.93140295058
scalar MyScenario.node[364].appl 	generatedWSMs 	0
scalar MyScenario.node[364].appl 	receivedWSMs 	0
scalar MyScenario.node[364].appl 	generatedBSMs 	0
scalar MyScenario.node[364].appl 	receivedBSMs 	0
scalar MyScenario.node[364].appl 	generatedWSAs 	0
scalar MyScenario.node[364].appl 	receivedWSAs 	0
scalar MyScenario.node[364].nic.phy80211p 	busyTime 	0
scalar MyScenario.node[364].nic.mac1609_4 	ReceivedUnicastPackets 	0
scalar MyScenario.node[364].nic.mac1609_4 	ReceivedBroadcasts 	0
scalar MyScenario.node[364].nic.mac1609_4 	SentPackets 	0
scalar MyScenario.node[364].nic.mac1609_4 	SNIRLostPackets 	0
scalar MyScenario.node[364].nic.mac1609_4 	RXTXLostPackets 	0
scalar MyScenario.node[364].nic.mac1609_4 	TotalLostPackets 	0
scalar MyScenario.node[364].nic.mac1609_4 	DroppedPacketsInMac 	0
scalar MyScenario.node[364].nic.mac1609_4 	TooLittleTime 	0
scalar MyScenario.node[364].nic.mac1609_4 	TimesIntoBackoff 	0
scalar MyScenario.node[364].nic.mac1609_4 	SlotsBackoff 	0
scalar MyScenario.node[364].nic.mac1609_4 	NumInternalContention 	0
scalar MyScenario.node[364].nic.mac1609_4 	totalBusyTime 	0
scalar MyScenario.node[364].veinsmobility 	startTime 	7
scalar MyScenario.node[364].veinsmobility 	totalTime 	31
scalar MyScenario.node[364].veinsmobility 	stopTime 	39
scalar MyScenario.node[364].veinsmobility 	minSpeed 	2.2050227632746
scalar MyScenario.node[364].veinsmobility 	maxSpeed 	13.89537319818
scalar MyScenario.node[364].veinsmobility 	totalDistance 	378.60300030035
scalar MyScenario.node[364].veinsmobility 	totalCO2Emission 	91.04692513003
scalar MyScenario.node[211].appl 	generatedWSMs 	1
scalar MyScenario.node[211].appl 	receivedWSMs 	1
scalar MyScenario.node[211].appl 	generatedBSMs 	0
scalar MyScenario.node[211].appl 	receivedBSMs 	0
scalar MyScenario.node[211].appl 	generatedWSAs 	0
scalar MyScenario.node[211].appl 	receivedWSAs 	0
scalar MyScenario.node[211].nic.phy80211p 	busyTime 	0.00014276923076923
scalar MyScenario.node[211].nic.mac1609_4 	ReceivedUnicastPackets 	0
scalar MyScenario.node[211].nic.mac1609_4 	ReceivedBroadcasts 	1
scalar MyScenario.node[211].nic.mac1609_4 	SentPackets 	1
scalar MyScenario.node[211].nic.mac1609_4 	SNIRLostPackets 	23
scalar MyScenario.node[211].nic.mac1609_4 	RXTXLostPackets 	25
scalar MyScenario.node[211].nic.mac1609_4 	TotalLostPackets 	48
scalar MyScenario.node[211].nic.mac1609_4 	DroppedPacketsInMac 	0
scalar MyScenario.node[211].nic.mac1609_4 	TooLittleTime 	0
scalar MyScenario.node[211].nic.mac1609_4 	TimesIntoBackoff 	1
scalar MyScenario.node[211].nic.mac1609_4 	SlotsBackoff 	1
scalar MyScenario.node[211].nic.mac1609_4 	NumInternalContention 	0
scalar MyScenario.node[211].nic.mac1609_4 	totalBusyTime 	0.001393144651
scalar MyScenario.node[211].veinsmobility 	startTime 	1
scalar MyScenario.node[211].veinsmobility 	totalTime 	38
scalar MyScenario.node[211].veinsmobility 	stopTime 	40
scalar MyScenario.node[211].veinsmobility 	minSpeed 	0.016413658721261
scalar MyScenario.node[211].veinsmobility 	maxSpeed 	13.72359640291
scalar MyScenario.node[211].veinsmobility 	totalDistance 	370.97433404747
scalar MyScenario.node[211].veinsmobility 	totalCO2Emission 	120.49094169517
scalar MyScenario.node[59].appl 	generatedWSMs 	0
scalar MyScenario.node[59].appl 	receivedWSMs 	0
scalar MyScenario.node[59].appl 	generatedBSMs 	0
scalar MyScenario.node[59].appl 	receivedBSMs 	0
scalar MyScenario.node[59].appl 	generatedWSAs 	0
scalar MyScenario.node[59].appl 	receivedWSAs 	0
scalar MyScenario.node[59].nic.phy80211p 	busyTime 	0
scalar MyScenario.node[59].nic.mac1609_4 	ReceivedUnicastPackets 	0
scalar MyScenario.node[59].nic.mac1609_4 	ReceivedBroadcasts 	0
scalar MyScenario.node[59].nic.mac1609_4 	SentPackets 	0
scalar MyScenario.node[59].nic.mac1609_4 	SNIRLostPackets 	0
scalar MyScenario.node[59].nic.mac1609_4 	RXTXLostPackets 	0
scalar MyScenario.node[59].nic.mac1609_4 	TotalLostPackets 	0
scalar MyScenario.node[59].nic.mac1609_4 	DroppedPacketsInMac 	0
scalar MyScenario.node[59].nic.mac1609_4 	TooLittleTime 	0
scalar MyScenario.node[59].nic.mac1609_4 	TimesIntoBackoff 	0
scalar MyScenario.node[59].nic.mac1609_4 	SlotsBackoff 	0
scalar MyScenario.node[59].nic.mac1609_4 	NumInternalContention 	0
scalar MyScenario.node[59].nic.mac1609_4 	totalBusyTime 	0
scalar MyScenario.node[59].veinsmobility 	startTime 	1
scalar MyScenario.node[59].veinsmobility 	totalTime 	38
scalar MyScenario.node[59].veinsmobility 	stopTime 	40
scalar MyScenario.node[59].veinsmobility 	minSpeed 	1.4020066069063
scalar MyScenario.node[59].veinsmobility 	maxSpeed 	13.885522825527
scalar MyScenario.node[59].veinsmobility 	totalDistance 	366.35567409009
scalar MyScenario.node[59].veinsmobility 	totalCO2Emission 	132.37365285011
scalar MyScenario.node[279].appl 	generatedWSMs 	0
scalar MyScenario.node[279].appl 	receivedWSMs 	0
scalar MyScenario.node[279].appl 	generatedBSMs 	0
scalar MyScenario.node[279].appl 	receivedBSMs 	0
scalar MyScenario.node[279].appl 	generatedWSAs 	0
scalar MyScenario.node[279].appl 	receivedWSAs 	0
scalar MyScenario.node[279].nic.phy80211p 	busyTime 	0
scalar MyScenario.node[279].nic.mac1609_4 	ReceivedUnicastPackets 	0
scalar MyScenario.node[279].nic.mac1609_4 	ReceivedBroadcasts 	0
scalar MyScenario.node[279].nic.mac1609_4 	SentPackets 	0
scalar MyScenario.node[279].nic.mac1609_4 	SNIRLostPackets 	0
scalar MyScenario.node[279].nic.mac1609_4 	RXTXLostPackets 	0
scalar MyScenario.node[279].nic.mac1609_4 	TotalLostPackets 	0
scalar MyScenario.node[279].nic.mac1609_4 	DroppedPacketsInMac 	0
scalar MyScenario.node[279].nic.mac1609_4 	TooLittleTime 	0
scalar MyScenario.node[279].nic.mac1609_4 	TimesIntoBackoff 	0
scalar MyScenario.node[279].nic.mac1609_4 	SlotsBackoff 	0
scalar MyScenario.node[279].nic.mac1609_4 	NumInternalContention 	0
scalar MyScenario.node[279].nic.mac1609_4 	totalBusyTime 	0
scalar MyScenario.node[279].veinsmobility 	startTime 	4
scalar MyScenario.node[279].veinsmobility 	totalTime 	35
scalar MyScenario.node[279].veinsmobility 	stopTime 	40
scalar MyScenario.node[279].veinsmobility 	minSpeed 	2.5382187406067
scalar MyScenario.node[279].veinsmobility 	maxSpeed 	13.822388798534
scalar MyScenario.node[279].veinsmobility 	totalDistance 	366.53304338849
scalar MyScenario.node[279].veinsmobility 	totalCO2Emission 	125.56908259609
scalar MyScenario.node[145].appl 	generatedWSMs 	0
scalar MyScenario.node[145].appl 	receivedWSMs 	0
scalar MyScenario.node[145].appl 	generatedBSMs 	0
scalar MyScenario.node[145].appl 	receivedBSMs 	0
scalar MyScenario.node[145].appl 	generatedWSAs 	0
scalar MyScenario.node[145].appl 	receivedWSAs 	0
scalar MyScenario.node[145].nic.phy80211p 	busyTime 	0
scalar MyScenario.node[145].nic.mac1609_4 	ReceivedUnicastPackets 	0
scalar MyScenario.node[145].nic.mac1609_4 	ReceivedBroadcasts 	0
scalar MyScenario.node[145].nic.mac1609_4 	SentPackets 	0
scalar MyScenario.node[145].nic.mac1609_4 	SNIRLostPackets 	0
scalar MyScenario.node[145].nic.mac1609_4 	RXTXLostPackets 	0
scalar MyScenario.node[145].nic.mac1609_4 	TotalLostPackets 	0
scalar MyScenario.node[145].nic.mac1609_4 	DroppedPacketsInMac 	0
scalar MyScenario.node[145].nic.mac1609_4 	TooLittleTime 	0
scalar MyScenario.node[145].nic.mac1609_4 	TimesIntoBackoff 	0
scalar MyScenario.node[145].nic.mac1609_4 	SlotsBackoff 	0
scalar MyScenario.node[145].nic.mac1609_4 	NumInternalContention 	0
scalar MyScenario.node[145].nic.mac1609_4 	totalBusyTime 	0
scalar MyScenario.node[145].veinsmobility 	startTime 	1
scalar MyScenario.node[145].veinsmobility 	totalTime 	39
scalar MyScenario.node[145].veinsmobility 	stopTime 	41
scalar MyScenario.node[145].veinsmobility 	minSpeed 	2.1991455138661
scalar MyScenario.node[145].veinsmobility 	maxSpeed 	13.885390156717
scalar MyScenario.node[145].veinsmobility 	totalDistance 	480.36009058662
scalar MyScenario.node[145].veinsmobility 	totalCO2Emission 	103.41409238512
scalar MyScenario.node[126].appl 	generatedWSMs 	1
scalar MyScenario.node[126].appl 	receivedWSMs 	6
scalar MyScenario.node[126].appl 	generatedBSMs 	0
scalar MyScenario.node[126].appl 	receivedBSMs 	0
scalar MyScenario.node[126].appl 	generatedWSAs 	0
scalar MyScenario.node[126].appl 	receivedWSAs 	0
scalar MyScenario.node[126].nic.phy80211p 	busyTime 	0.000203
scalar MyScenario.node[126].nic.mac1609_4 	ReceivedUnicastPackets 	0
scalar MyScenario.node[126].nic.mac1609_4 	ReceivedBroadcasts 	6
scalar MyScenario.node[126].nic.mac1609_4 	SentPackets 	1
scalar MyScenario.node[126].nic.mac1609_4 	SNIRLostPackets 	29
scalar MyScenario.node[126].nic.mac1609_4 	RXTXLostPackets 	9
scalar MyScenario.node[126].nic.mac1609_4 	TotalLostPackets 	38
scalar MyScenario.node[126].nic.mac1609_4 	DroppedPacketsInMac 	0
scalar MyScenario.node[126].nic.mac1609_4 	TooLittleTime 	0
scalar MyScenario.node[126].nic.mac1609_4 	TimesIntoBackoff 	1
scalar MyScenario.node[126].nic.mac1609_4 	SlotsBackoff 	0
scalar MyScenario.node[126].nic.mac1609_4 	NumInternalContention 	0
scalar MyScenario.node[126].nic.mac1609_4 	totalBusyTime 	0.003481009385
scalar MyScenario.node[126].veinsmobility 	startTime 	1
scalar MyScenario.node[126].veinsmobility 	totalTime 	39
scalar MyScenario.node[126].veinsmobility 	stopTime 	41
scalar MyScenario.node[126].veinsmobility 	minSpeed 	1.7930153109133
scalar MyScenario.node[126].veinsmobility 	maxSpeed 	13.898402130138
scalar MyScenario.node[126].veinsmobility 	totalDistance 	458.81782929083
scalar MyScenario.node[126].veinsmobility 	totalCO2Emission 	119.8905993638
scalar MyScenario.node[354].appl 	generatedWSMs 	0
scalar MyScenario.node[354].appl 	receivedWSMs 	0
scalar MyScenario.node[354].appl 	generatedBSMs 	0
scalar MyScenario.node[354].appl 	receivedBSMs 	0
scalar MyScenario.node[354].appl 	generatedWSAs 	0
scalar MyScenario.node[354].appl 	receivedWSAs 	0
scalar MyScenario.node[354].nic.phy80211p 	busyTime 	0
scalar MyScenario.node[354].nic.mac1609_4 	ReceivedUnicastPackets 	0
scalar MyScenario.node[354].nic.mac1609_4 	ReceivedBroadcasts 	0
scalar MyScenario.node[354].nic.mac1609_4 	SentPackets 	0
scalar MyScenario.node[354].nic.mac1609_4 	SNIRLostPackets 	0
scalar MyScenario.node[354].nic.mac1609_4 	RXTXLostPackets 	0
scalar MyScenario.node[354].nic.mac1609_4 	TotalLostPackets 	0
scalar MyScenario.node[354].nic.mac1609_4 	DroppedPacketsInMac 	0
scalar MyScenario.node[354].nic.mac1609_4 	TooLittleTime 	0
scalar MyScenario.node[354].nic.mac1609_4 	TimesIntoBackoff 	0
scalar MyScenario.node[354].nic.mac1609_4 	SlotsBackoff 	0
scalar MyScenario.node[354].nic.mac1609_4 	NumInternalContention 	0
scalar MyScenario.node[354].nic.mac1609_4 	totalBusyTime 	0
scalar MyScenario.node[354].veinsmobility 	startTime 	7
scalar MyScenario.node[354].veinsmobility 	totalTime 	34
scalar MyScenario.node[354].veinsmobility 	stopTime 	42
scalar MyScenario.node[354].veinsmobility 	minSpeed 	2.0473127697594
scalar MyScenario.node[354].veinsmobility 	maxSpeed 	13.867951276689
scalar MyScenario.node[354].veinsmobility 	totalDistance 	372.31900685915
scalar MyScenario.node[354].veinsmobility 	totalCO2Emission 	109.15265297871
scalar MyScenario.node[22].appl 	generatedWSMs 	1
scalar MyScenario.node[22].appl 	receivedWSMs 	2
scalar MyScenario.node[22].appl 	generatedBSMs 	0
scalar MyScenario.node[22].appl 	receivedBSMs 	0
scalar MyScenario.node[22].appl 	generatedWSAs 	0
scalar MyScenario.node[22].appl 	receivedWSAs 	0
scalar MyScenario.node[22].nic.phy80211p 	busyTime 	0.00013014634146341
scalar MyScenario.node[22].nic.mac1609_4 	ReceivedUnicastPackets 	0
scalar MyScenario.node[22].nic.mac1609_4 	ReceivedBroadcasts 	2
scalar MyScenario.node[22].nic.mac1609_4 	SentPackets 	1
scalar MyScenario.node[22].nic.mac1609_4 	SNIRLostPackets 	21
scalar MyScenario.node[22].nic.mac1609_4 	RXTXLostPackets 	10
scalar MyScenario.node[22].nic.mac1609_4 	TotalLostPackets 	31
scalar MyScenario.node[22].nic.mac1609_4 	DroppedPacketsInMac 	0
scalar MyScenario.node[22].nic.mac1609_4 	TooLittleTime 	0
scalar MyScenario.node[22].nic.mac1609_4 	TimesIntoBackoff 	1
scalar MyScenario.node[22].nic.mac1609_4 	SlotsBackoff 	2
scalar MyScenario.node[22].nic.mac1609_4 	NumInternalContention 	0
scalar MyScenario.node[22].nic.mac1609_4 	totalBusyTime 	0.001393019982
scalar MyScenario.node[22].veinsmobility 	startTime 	1
scalar MyScenario.node[22].veinsmobility 	totalTime 	40
scalar MyScenario.node[22].veinsmobility 	stopTime 	42
scalar MyScenario.node[22].veinsmobility 	minSpeed 	1.8369037234923
scalar MyScenario.node[22].veinsmobility 	maxSpeed 	13.826944783865
scalar MyScenario.node[22].veinsmobility 	totalDistance 	468.1132019578
scalar MyScenario.node[22].veinsmobility 	totalCO2Emission 	122.21147347849
scalar MyScenario.node[218].appl 	generatedWSMs 	1
scalar MyScenario.node[218].appl 	receivedWSMs 	12
scalar MyScenario.node[218].appl 	generatedBSMs 	0
scalar MyScenario.node[218].appl 	receivedBSMs 	0
scalar MyScenario.node[218].appl 	generatedWSAs 	0
scalar MyScenario.node[218].appl 	receivedWSAs 	0
scalar MyScenario.node[218].nic.phy80211p 	busyTime 	0.00028292682926829
scalar MyScenario.node[218].nic.mac1609_4 	ReceivedUnicastPackets 	0
scalar MyScenario.node[218].nic.mac1609_4 	ReceivedBroadcasts 	12
scalar MyScenario.node[218].nic.mac1609_4 	SentPackets 	1
scalar MyScenario.node[218].nic.mac1609_4 	SNIRLostPackets 	38
scalar MyScenario.node[218].nic.mac1609_4 	RXTXLostPackets 	20
scalar MyScenario.node[218].nic.mac1609_4 	TotalLostPackets 	58
scalar MyScenario.node[218].nic.mac1609_4 	DroppedPacketsInMac 	0
scalar MyScenario.node[218].nic.mac1609_4 	TooLittleTime 	0
scalar MyScenario.node[218].nic.mac1609_4 	TimesIntoBackoff 	1
scalar MyScenario.node[218].nic.mac1609_4 	SlotsBackoff 	0
scalar MyScenario.node[218].nic.mac1609_4 	NumInternalContention 	0
scalar MyScenario.node[218].nic.mac1609_4 	totalBusyTime 	0.004641073907
scalar MyScenario.node[218].veinsmobility 	startTime 	1
scalar MyScenario.node[218].veinsmobility 	totalTime 	40
scalar MyScenario.node[218].veinsmobility 	stopTime 	42
scalar MyScenario.node[218].veinsmobility 	minSpeed 	1.3539016533177
scalar MyScenario.node[218].veinsmobility 	maxSpeed 	13.873278616765
scalar MyScenario.node[218].veinsmobility 	totalDistance 	470.32931330675
scalar MyScenario.node[218].veinsmobility 	totalCO2Emission 	122.316408876
scalar MyScenario.node[213].appl 	generatedWSMs 	0
scalar MyScenario.node[213].appl 	receivedWSMs 	0
scalar MyScenario.node[213].appl 	generatedBSMs 	0
scalar MyScenario.node[213].appl 	receivedBSMs 	0
scalar MyScenario.node[213].appl 	generatedWSAs 	0
scalar MyScenario.node[213].appl 	receivedWSAs 	0
scalar MyScenario.node[213].nic.phy80211p 	busyTime 	0.00018228571428571
scalar MyScenario.node[213].nic.mac1609_4 	ReceivedUnicastPackets 	0
scalar MyScenario.node[213].nic.mac1609_4 	ReceivedBroadcasts 	0
scalar MyScenario.node[213].nic.mac1609_4 	SentPackets 	0
scalar MyScenario.node[213].nic.mac1609_4 	SNIRLostPackets 	33
scalar MyScenario.node[213].nic.mac1609_4 	RXTXLostPackets 	0
scalar MyScenario.node[213].nic.mac1609_4 	TotalLostPackets 	33
scalar MyScenario.node[213].nic.mac1609_4 	DroppedPacketsInMac 	0
scalar MyScenario.node[213].nic.mac1609_4 	TooLittleTime 	0
scalar MyScenario.node[213].nic.mac1609_4 	TimesIntoBackoff 	0
scalar MyScenario.node[213].nic.mac1609_4 	SlotsBackoff 	0
scalar MyScenario.node[213].nic.mac1609_4 	NumInternalContention 	0
scalar MyScenario.node[213].nic.mac1609_4 	totalBusyTime 	0.00116
scalar MyScenario.node[213].veinsmobility 	startTime 	1
scalar MyScenario.node[213].veinsmobility 	totalTime 	41
scalar MyScenario.node[213].veinsmobility 	stopTime 	43
scalar MyScenario.node[213].veinsmobility 	minSpeed 	1.6337794786785
scalar MyScenario.node[213].veinsmobility 	maxSpeed 	13.873612495628
scalar MyScenario.node[213].veinsmobility 	totalDistance 	470.33374014879
scalar MyScenario.node[213].veinsmobility 	totalCO2Emission 	121.90667954048
scalar MyScenario.node[72].appl 	generatedWSMs 	1
scalar MyScenario.node[72].appl 	receivedWSMs 	12
scalar MyScenario.node[72].appl 	generatedBSMs 	0
scalar MyScenario.node[72].appl 	receivedBSMs 	0
scalar MyScenario.node[72].appl 	generatedWSAs 	0
scalar MyScenario.node[72].appl 	receivedWSAs 	0
scalar MyScenario.node[72].nic.phy80211p 	busyTime 	0.00028595348837209
scalar MyScenario.node[72].nic.mac1609_4 	ReceivedUnicastPackets 	0
scalar MyScenario.node[72].nic.mac1609_4 	ReceivedBroadcasts 	12
scalar MyScenario.node[72].nic.mac1609_4 	SentPackets 	1
scalar MyScenario.node[72].nic.mac1609_4 	SNIRLostPackets 	41
scalar MyScenario.node[72].nic.mac1609_4 	RXTXLostPackets 	20
scalar MyScenario.node[72].nic.mac1609_4 	TotalLostPackets 	61
scalar MyScenario.node[72].nic.mac1609_4 	DroppedPacketsInMac 	0
scalar MyScenario.node[72].nic.mac1609_4 	TooLittleTime 	0
scalar MyScenario.node[72].nic.mac1609_4 	TimesIntoBackoff 	1
scalar MyScenario.node[72].nic.mac1609_4 	SlotsBackoff 	1
scalar MyScenario.node[72].nic.mac1609_4 	NumInternalContention 	0
scalar MyScenario.node[72].nic.mac1609_4 	totalBusyTime 	0.004873106872
scalar MyScenario.node[72].veinsmobility 	startTime 	1
scalar MyScenario.node[72].veinsmobility 	totalTime 	42
scalar MyScenario.node[72].veinsmobility 	stopTime 	44
scalar MyScenario.node[72].veinsmobility 	minSpeed 	2.2188022013986
scalar MyScenario.node[72].veinsmobility 	maxSpeed 	13.892996795219
scalar MyScenario.node[72].veinsmobility 	totalDistance 	456.82831306367
scalar MyScenario.node[72].veinsmobility 	totalCO2Emission 	143.6292585728
scalar MyScenario.node[54].appl 	generatedWSMs 	1
scalar MyScenario.node[54].appl 	receivedWSMs 	1
scalar MyScenario.node[54].appl 	generatedBSMs 	0
scalar MyScenario.node[54].appl 	receivedBSMs 	0
scalar MyScenario.node[54].appl 	generatedWSAs 	0
scalar MyScenario.node[54].appl 	receivedWSAs 	0
scalar MyScenario.node[54].nic.phy80211p 	busyTime 	3.2372093023256e-05
scalar MyScenario.node[54].nic.mac1609_4 	ReceivedUnicastPackets 	0
scalar MyScenario.node[54].nic.mac1609_4 	ReceivedBroadcasts 	1
scalar MyScenario.node[54].nic.mac1609_4 	SentPackets 	1
scalar MyScenario.node[54].nic.mac1609_4 	SNIRLostPackets 	5
scalar MyScenario.node[54].nic.mac1609_4 	RXTXLostPackets 	15
scalar MyScenario.node[54].nic.mac1609_4 	TotalLostPackets 	20
scalar MyScenario.node[54].nic.mac1609_4 	DroppedPacketsInMac 	0
scalar MyScenario.node[54].nic.mac1609_4 	TooLittleTime 	0
scalar MyScenario.node[54].nic.mac1609_4 	TimesIntoBackoff 	1
scalar MyScenario.node[54].nic.mac1609_4 	SlotsBackoff 	3
scalar MyScenario.node[54].nic.mac1609_4 	NumInternalContention 	0
scalar MyScenario.node[54].nic.mac1609_4 	totalBusyTime 	0.000697274709
scalar MyScenario.node[54].veinsmobility 	startTime 	1
scalar MyScenario.node[54].veinsmobility 	totalTime 	42
scalar MyScenario.node[54].veinsmobility 	stopTime 	44
scalar MyScenario.node[54].veinsmobility 	minSpeed 	2.5113419966539
scalar MyScenario.node[54].veinsmobility 	maxSpeed 	13.881102995877
scalar MyScenario.node[54].veinsmobility 	totalDistance 	461.00018223534
scalar MyScenario.node[54].veinsmobility 	totalCO2Emission 	144.61509617739
scalar MyScenario.node[52].appl 	generatedWSMs 	1
scalar MyScenario.node[52].appl 	receivedWSMs 	1
scalar MyScenario.node[52].appl 	generatedBSMs 	0
scalar MyScenario.node[52].appl 	receivedBSMs 	0
scalar MyScenario.node[52].appl 	generatedWSAs 	0
scalar MyScenario.node[52].appl 	receivedWSAs 	0
scalar MyScenario.node[52].nic.phy80211p 	busyTime 	0.00018344186046512
scalar MyScenario.node[52].nic.mac1609_4 	ReceivedUnicastPackets 	0
scalar MyScenario.node[52].nic.mac1609_4 	ReceivedBroadcasts 	1
scalar MyScenario.node[52].nic.mac1609_4 	SentPackets 	1
scalar MyScenario.node[52].nic.mac1609_4 	SNIRLostPackets 	33
scalar MyScenario.node[52].nic.mac1609_4 	RXTXLostPackets 	19
scalar MyScenario.node[52].nic.mac1609_4 	TotalLostPackets 	52
scalar MyScenario.node[52].nic.mac1609_4 	DroppedPacketsInMac 	0
scalar MyScenario.node[52].nic.mac1609_4 	TooLittleTime 	0
scalar MyScenario.node[52].nic.mac1609_4 	TimesIntoBackoff 	1
scalar MyScenario.node[52].nic.mac1609_4 	SlotsBackoff 	2
scalar MyScenario.node[52].nic.mac1609_4 	NumInternalContention 	0
scalar MyScenario.node[52].nic.mac1609_4 	totalBusyTime 	0.002089094197
scalar MyScenario.node[52].veinsmobility 	startTime 	1
scalar MyScenario.node[52].veinsmobility 	totalTime 	42
scalar MyScenario.node[52].veinsmobility 	stopTime 	44
scalar MyScenario.node[52].veinsmobility 	minSpeed 	1.9999148398638
scalar MyScenario.node[52].veinsmobility 	maxSpeed 	13.825798424543
scalar MyScenario.node[52].veinsmobility 	totalDistance 	478.25833082817
scalar MyScenario.node[52].veinsmobility 	totalCO2Emission 	119.28814861809
scalar MyScenario.node[70].appl 	generatedWSMs 	0
scalar MyScenario.node[70].appl 	receivedWSMs 	0
scalar MyScenario.node[70].appl 	generatedBSMs 	0
scalar MyScenario.node[70].appl 	receivedBSMs 	0
scalar MyScenario.node[70].appl 	generatedWSAs 	0
scalar MyScenario.node[70].appl 	receivedWSAs 	0
scalar MyScenario.node[70].nic.phy80211p 	busyTime 	0
scalar MyScenario.node[70].nic.mac1609_4 	ReceivedUnicastPackets 	0
scalar MyScenario.node[70].nic.mac1609_4 	ReceivedBroadcasts 	0
scalar MyScenario.node[70].nic.mac1609_4 	SentPackets 	0
scalar MyScenario.node[70].nic.mac1609_4 	SNIRLostPackets 	0
scalar MyScenario.node[70].nic.mac1609_4 	RXTXLostPackets 	0
scalar MyScenario.node[70].nic.mac1609_4 	TotalLostPackets 	0
scalar MyScenario.node[70].nic.mac1609_4 	DroppedPacketsInMac 	0
scalar MyScenario.node[70].nic.mac1609_4 	TooLittleTime 	0
scalar MyScenario.node[70].nic.mac1609_4 	TimesIntoBackoff 	0
scalar MyScenario.node[70].nic.mac1609_4 	SlotsBackoff 	0
scalar MyScenario.node[70].nic.mac1609_4 	NumInternalContention 	0
scalar MyScenario.node[70].nic.mac1609_4 	totalBusyTime 	0
scalar MyScenario.node[70].veinsmobility 	startTime 	1
scalar MyScenario.node[70].veinsmobility 	totalTime 	42
scalar MyScenario.node[70].veinsmobility 	stopTime 	44
scalar MyScenario.node[70].veinsmobility 	minSpeed 	1.6022137842607
scalar MyScenario.node[70].veinsmobility 	maxSpeed 	13.874993300159
scalar MyScenario.node[70].veinsmobility 	totalDistance 	480.32410103755
scalar MyScenario.node[70].veinsmobility 	totalCO2Emission 	131.38874768053
scalar MyScenario.node[63].appl 	generatedWSMs 	0
scalar MyScenario.node[63].appl 	receivedWSMs 	0
scalar MyScenario.node[63].appl 	generatedBSMs 	0
scalar MyScenario.node[63].appl 	receivedBSMs 	0
scalar MyScenario.node[63].appl 	generatedWSAs 	0
scalar MyScenario.node[63].appl 	receivedWSAs 	0
scalar MyScenario.node[63].nic.phy80211p 	busyTime 	5.2727272727273e-06
scalar MyScenario.node[63].nic.mac1609_4 	ReceivedUnicastPackets 	0
scalar MyScenario.node[63].nic.mac1609_4 	ReceivedBroadcasts 	0
scalar MyScenario.node[63].nic.mac1609_4 	SentPackets 	0
scalar MyScenario.node[63].nic.mac1609_4 	SNIRLostPackets 	1
scalar MyScenario.node[63].nic.mac1609_4 	RXTXLostPackets 	0
scalar MyScenario.node[63].nic.mac1609_4 	TotalLostPackets 	1
scalar MyScenario.node[63].nic.mac1609_4 	DroppedPacketsInMac 	0
scalar MyScenario.node[63].nic.mac1609_4 	TooLittleTime 	0
scalar MyScenario.node[63].nic.mac1609_4 	TimesIntoBackoff 	0
scalar MyScenario.node[63].nic.mac1609_4 	SlotsBackoff 	0
scalar MyScenario.node[63].nic.mac1609_4 	NumInternalContention 	0
scalar MyScenario.node[63].nic.mac1609_4 	totalBusyTime 	0.000232
scalar MyScenario.node[63].veinsmobility 	startTime 	1
scalar MyScenario.node[63].veinsmobility 	totalTime 	43
scalar MyScenario.node[63].veinsmobility 	stopTime 	45
scalar MyScenario.node[63].veinsmobility 	minSpeed 	1.3126432470279
scalar MyScenario.node[63].veinsmobility 	maxSpeed 	13.880404014606
scalar MyScenario.node[63].veinsmobility 	totalDistance 	462.96904378027
scalar MyScenario.node[63].veinsmobility 	totalCO2Emission 	131.34144120636
scalar MyScenario.node[15].appl 	generatedWSMs 	0
scalar MyScenario.node[15].appl 	receivedWSMs 	0
scalar MyScenario.node[15].appl 	generatedBSMs 	0
scalar MyScenario.node[15].appl 	receivedBSMs 	0
scalar MyScenario.node[15].appl 	generatedWSAs 	0
scalar MyScenario.node[15].appl 	receivedWSAs 	0
scalar MyScenario.node[15].nic.phy80211p 	busyTime 	0
scalar MyScenario.node[15].nic.mac1609_4 	ReceivedUnicastPackets 	0
scalar MyScenario.node[15].nic.mac1609_4 	ReceivedBroadcasts 	0
scalar MyScenario.node[15].nic.mac1609_4 	SentPackets 	0
scalar MyScenario.node[15].nic.mac1609_4 	SNIRLostPackets 	0
scalar MyScenario.node[15].nic.mac1609_4 	RXTXLostPackets 	0
scalar MyScenario.node[15].nic.mac1609_4 	TotalLostPackets 	0
scalar MyScenario.node[15].nic.mac1609_4 	DroppedPacketsInMac 	0
scalar MyScenario.node[15].nic.mac1609_4 	TooLittleTime 	0
scalar MyScenario.node[15].nic.mac1609_4 	TimesIntoBackoff 	0
scalar MyScenario.node[15].nic.mac1609_4 	SlotsBackoff 	0
scalar MyScenario.node[15].nic.mac1609_4 	NumInternalContention 	0
scalar MyScenario.node[15].nic.mac1609_4 	totalBusyTime 	0
scalar MyScenario.node[15].veinsmobility 	startTime 	1
scalar MyScenario.node[15].veinsmobility 	totalTime 	43
scalar MyScenario.node[15].veinsmobility 	stopTime 	45
scalar MyScenario.node[15].veinsmobility 	minSpeed 	0.057166006684906
scalar MyScenario.node[15].veinsmobility 	maxSpeed 	13.880257989443
scalar MyScenario.node[15].veinsmobility 	totalDistance 	368.68253964498
scalar MyScenario.node[15].veinsmobility 	totalCO2Emission 	140.1663423888
scalar MyScenario.node[100].appl 	generatedWSMs 	0
scalar MyScenario.node[100].appl 	receivedWSMs 	0
scalar MyScenario.node[100].appl 	generatedBSMs 	0
scalar MyScenario.node[100].appl 	receivedBSMs 	0
scalar MyScenario.node[100].appl 	generatedWSAs 	0
scalar MyScenario.node[100].appl 	receivedWSAs 	0
scalar MyScenario.node[100].nic.phy80211p 	busyTime 	0
scalar MyScenario.node[100].nic.mac1609_4 	ReceivedUnicastPackets 	0
scalar MyScenario.node[100].nic.mac1609_4 	ReceivedBroadcasts 	0
scalar MyScenario.node[100].nic.mac1609_4 	SentPackets 	0
scalar MyScenario.node[100].nic.mac1609_4 	SNIRLostPackets 	0
scalar MyScenario.node[100].nic.mac1609_4 	RXTXLostPackets 	0
scalar MyScenario.node[100].nic.mac1609_4 	TotalLostPackets 	0
scalar MyScenario.node[100].nic.mac1609_4 	DroppedPacketsInMac 	0
scalar MyScenario.node[100].nic.mac1609_4 	TooLittleTime 	0
scalar MyScenario.node[100].nic.mac1609_4 	TimesIntoBackoff 	0
scalar MyScenario.node[100].nic.mac1609_4 	SlotsBackoff 	0
scalar MyScenario.node[100].nic.mac1609_4 	NumInternalContention 	0
scalar MyScenario.node[100].nic.mac1609_4 	totalBusyTime 	0
scalar MyScenario.node[100].veinsmobility 	startTime 	1
scalar MyScenario.node[100].veinsmobility 	totalTime 	43
scalar MyScenario.node[100].veinsmobility 	stopTime 	45
scalar MyScenario.node[100].veinsmobility 	minSpeed 	0.008799186804805
scalar MyScenario.node[100].veinsmobility 	maxSpeed 	13.898334919475
scalar MyScenario.node[100].veinsmobility 	totalDistance 	378.22561957874
scalar MyScenario.node[100].veinsmobility 	totalCO2Emission 	151.56190989236
scalar MyScenario.node[170].appl 	generatedWSMs 	0
scalar MyScenario.node[170].appl 	receivedWSMs 	0
scalar MyScenario.node[170].appl 	generatedBSMs 	0
scalar MyScenario.node[170].appl 	receivedBSMs 	0
scalar MyScenario.node[170].appl 	generatedWSAs 	0
scalar MyScenario.node[170].appl 	receivedWSAs 	0
scalar MyScenario.node[170].nic.phy80211p 	busyTime 	1.0545454545455e-05
scalar MyScenario.node[170].nic.mac1609_4 	ReceivedUnicastPackets 	0
scalar MyScenario.node[170].nic.mac1609_4 	ReceivedBroadcasts 	0
scalar MyScenario.node[170].nic.mac1609_4 	SentPackets 	0
scalar MyScenario.node[170].nic.mac1609_4 	SNIRLostPackets 	2
scalar MyScenario.node[170].nic.mac1609_4 	RXTXLostPackets 	0
scalar MyScenario.node[170].nic.mac1609_4 	TotalLostPackets 	2
scalar MyScenario.node[170].nic.mac1609_4 	DroppedPacketsInMac 	0
scalar MyScenario.node[170].nic.mac1609_4 	TooLittleTime 	0
scalar MyScenario.node[170].nic.mac1609_4 	TimesIntoBackoff 	0
scalar MyScenario.node[170].nic.mac1609_4 	SlotsBackoff 	0
scalar MyScenario.node[170].nic.mac1609_4 	NumInternalContention 	0
scalar MyScenario.node[170].nic.mac1609_4 	totalBusyTime 	0.000232
scalar MyScenario.node[170].veinsmobility 	startTime 	1
scalar MyScenario.node[170].veinsmobility 	totalTime 	43
scalar MyScenario.node[170].veinsmobility 	stopTime 	45
scalar MyScenario.node[170].veinsmobility 	minSpeed 	1.413622249011
scalar MyScenario.node[170].veinsmobility 	maxSpeed 	13.889354514657
scalar MyScenario.node[170].veinsmobility 	totalDistance 	482.98248708064
scalar MyScenario.node[170].veinsmobility 	totalCO2Emission 	124.49212582812
scalar MyScenario.node[327].appl 	generatedWSMs 	0
scalar MyScenario.node[327].appl 	receivedWSMs 	0
scalar MyScenario.node[327].appl 	generatedBSMs 	0
scalar MyScenario.node[327].appl 	receivedBSMs 	0
scalar MyScenario.node[327].appl 	generatedWSAs 	0
scalar MyScenario.node[327].appl 	receivedWSAs 	0
scalar MyScenario.node[327].nic.phy80211p 	busyTime 	3.2372093023256e-05
scalar MyScenario.node[327].nic.mac1609_4 	ReceivedUnicastPackets 	0
scalar MyScenario.node[327].nic.mac1609_4 	ReceivedBroadcasts 	0
scalar MyScenario.node[327].nic.mac1609_4 	SentPackets 	0
scalar MyScenario.node[327].nic.mac1609_4 	SNIRLostPackets 	6
scalar MyScenario.node[327].nic.mac1609_4 	RXTXLostPackets 	0
scalar MyScenario.node[327].nic.mac1609_4 	TotalLostPackets 	6
scalar MyScenario.node[327].nic.mac1609_4 	DroppedPacketsInMac 	0
scalar MyScenario.node[327].nic.mac1609_4 	TooLittleTime 	0
scalar MyScenario.node[327].nic.mac1609_4 	TimesIntoBackoff 	0
scalar MyScenario.node[327].nic.mac1609_4 	SlotsBackoff 	0
scalar MyScenario.node[327].nic.mac1609_4 	NumInternalContention 	0
scalar MyScenario.node[327].nic.mac1609_4 	totalBusyTime 	0.000464
scalar MyScenario.node[327].veinsmobility 	startTime 	4
scalar MyScenario.node[327].veinsmobility 	totalTime 	42
scalar MyScenario.node[327].veinsmobility 	stopTime 	47
scalar MyScenario.node[327].veinsmobility 	minSpeed 	2.1779379956424
scalar MyScenario.node[327].veinsmobility 	maxSpeed 	13.862599573308
scalar MyScenario.node[327].veinsmobility 	totalDistance 	461.95121105602
scalar MyScenario.node[327].veinsmobility 	totalCO2Emission 	141.56335540891
scalar MyScenario.node[380].appl 	generatedWSMs 	1
scalar MyScenario.node[380].appl 	receivedWSMs 	1
scalar MyScenario.node[380].appl 	generatedBSMs 	0
scalar MyScenario.node[380].appl 	receivedBSMs 	0
scalar MyScenario.node[380].appl 	generatedWSAs 	0
scalar MyScenario.node[380].appl 	receivedWSAs 	0
scalar MyScenario.node[380].nic.phy80211p 	busyTime 	5.8e-05
scalar MyScenario.node[380].nic.mac1609_4 	ReceivedUnicastPackets 	0
scalar MyScenario.node[380].nic.mac1609_4 	ReceivedBroadcasts 	1
scalar MyScenario.node[380].nic.mac1609_4 	SentPackets 	1
scalar MyScenario.node[380].nic.mac1609_4 	SNIRLostPackets 	9
scalar MyScenario.node[380].nic.mac1609_4 	RXTXLostPackets 	11
scalar MyScenario.node[380].nic.mac1609_4 	TotalLostPackets 	20
scalar MyScenario.node[380].nic.mac1609_4 	DroppedPacketsInMac 	0
scalar MyScenario.node[380].nic.mac1609_4 	TooLittleTime 	0
scalar MyScenario.node[380].nic.mac1609_4 	TimesIntoBackoff 	1
scalar MyScenario.node[380].nic.mac1609_4 	SlotsBackoff 	1
scalar MyScenario.node[380].nic.mac1609_4 	NumInternalContention 	0
scalar MyScenario.node[380].nic.mac1609_4 	totalBusyTime 	0.000697026036
scalar MyScenario.node[380].veinsmobility 	startTime 	7
scalar MyScenario.node[380].veinsmobility 	totalTime 	39
scalar MyScenario.node[380].veinsmobility 	stopTime 	47
scalar MyScenario.node[380].veinsmobility 	minSpeed 	1.8646862447262
scalar MyScenario.node[380].veinsmobility 	maxSpeed 	13.894840018265
scalar MyScenario.node[380].veinsmobility 	totalDistance 	479.2679975631
scalar MyScenario.node[380].veinsmobility 	totalCO2Emission 	109.56312552231
scalar MyScenario.node[311].appl 	generatedWSMs 	0
scalar MyScenario.node[311].appl 	receivedWSMs 	0
scalar MyScenario.node[311].appl 	generatedBSMs 	0
scalar MyScenario.node[311].appl 	receivedBSMs 	0
scalar MyScenario.node[311].appl 	generatedWSAs 	0
scalar MyScenario.node[311].appl 	receivedWSAs 	0
scalar MyScenario.node[311].nic.phy80211p 	busyTime 	0
scalar MyScenario.node[311].nic.mac1609_4 	ReceivedUnicastPackets 	0
scalar MyScenario.node[311].nic.mac1609_4 	ReceivedBroadcasts 	0
scalar MyScenario.node[311].nic.mac1609_4 	SentPackets 	0
scalar MyScenario.node[311].nic.mac1609_4 	SNIRLostPackets 	0
scalar MyScenario.node[311].nic.mac1609_4 	RXTXLostPackets 	0
scalar MyScenario.node[311].nic.mac1609_4 	TotalLostPackets 	0
scalar MyScenario.node[311].nic.mac1609_4 	DroppedPacketsInMac 	0
scalar MyScenario.node[311].nic.mac1609_4 	TooLittleTime 	0
scalar MyScenario.node[311].nic.mac1609_4 	TimesIntoBackoff 	0
scalar MyScenario.node[311].nic.mac1609_4 	SlotsBackoff 	0
scalar MyScenario.node[311].nic.mac1609_4 	NumInternalContention 	0
scalar MyScenario.node[311].nic.mac1609_4 	totalBusyTime 	0
scalar MyScenario.node[311].veinsmobility 	startTime 	4
scalar MyScenario.node[311].veinsmobility 	totalTime 	43
scalar MyScenario.node[311].veinsmobility 	stopTime 	48
scalar MyScenario.node[311].veinsmobility 	minSpeed 	2.5057923648739
scalar MyScenario.node[311].veinsmobility 	maxSpeed 	13.829110956308
scalar MyScenario.node[311].veinsmobility 	totalDistance 	456.0874338316
scalar MyScenario.node[311].veinsmobility 	totalCO2Emission 	147.67425964802
scalar MyScenario.node[288].appl 	generatedWSMs 	1
scalar MyScenario.node[288].appl 	receivedWSMs 	17
scalar MyScenario.node[288].appl 	generatedBSMs 	0
scalar MyScenario.node[288].appl 	receivedBSMs 	0
scalar MyScenario.node[288].appl 	generatedWSAs 	0
scalar MyScenario.node[288].appl 	receivedWSAs 	0
scalar MyScenario.node[288].nic.phy80211p 	busyTime 	0.00026363636363636
scalar MyScenario.node[288].nic.mac1609_4 	ReceivedUnicastPackets 	0
scalar MyScenario.node[288].nic.mac1609_4 	ReceivedBroadcasts 	17
scalar MyScenario.node[288].nic.mac1609_4 	SentPackets 	1
scalar MyScenario.node[288].nic.mac1609_4 	SNIRLostPackets 	33
scalar MyScenario.node[288].nic.mac1609_4 	RXTXLostPackets 	13
scalar MyScenario.node[288].nic.mac1609_4 	TotalLostPackets 	46
scalar MyScenario.node[288].nic.mac1609_4 	DroppedPacketsInMac 	0
scalar MyScenario.node[288].nic.mac1609_4 	TooLittleTime 	0
scalar MyScenario.node[288].nic.mac1609_4 	TimesIntoBackoff 	1
scalar MyScenario.node[288].nic.mac1609_4 	SlotsBackoff 	3
scalar MyScenario.node[288].nic.mac1609_4 	NumInternalContention 	0
scalar MyScenario.node[288].nic.mac1609_4 	totalBusyTime 	0.005569098467
scalar MyScenario.node[288].veinsmobility 	startTime 	4
scalar MyScenario.node[288].veinsmobility 	totalTime 	43
scalar MyScenario.node[288].veinsmobility 	stopTime 	48
scalar MyScenario.node[288].veinsmobility 	minSpeed 	1.59779623379
scalar MyScenario.node[288].veinsmobility 	maxSpeed 	13.853842589189
scalar MyScenario.node[288].veinsmobility 	totalDistance 	478.36967435171
scalar MyScenario.node[288].veinsmobility 	totalCO2Emission 	140.81406351949
scalar MyScenario.node[185].appl 	generatedWSMs 	0
scalar MyScenario.node[185].appl 	receivedWSMs 	0
scalar MyScenario.node[185].appl 	generatedBSMs 	0
scalar MyScenario.node[185].appl 	receivedBSMs 	0
scalar MyScenario.node[185].appl 	generatedWSAs 	0
scalar MyScenario.node[185].appl 	receivedWSAs 	0
scalar MyScenario.node[185].nic.phy80211p 	busyTime 	0
scalar MyScenario.node[185].nic.mac1609_4 	ReceivedUnicastPackets 	0
scalar MyScenario.node[185].nic.mac1609_4 	ReceivedBroadcasts 	0
scalar MyScenario.node[185].nic.mac1609_4 	SentPackets 	0
scalar MyScenario.node[185].nic.mac1609_4 	SNIRLostPackets 	0
scalar MyScenario.node[185].nic.mac1609_4 	RXTXLostPackets 	0
scalar MyScenario.node[185].nic.mac1609_4 	TotalLostPackets 	0
scalar MyScenario.node[185].nic.mac1609_4 	DroppedPacketsInMac 	0
scalar MyScenario.node[185].nic.mac1609_4 	TooLittleTime 	0
scalar MyScenario.node[185].nic.mac1609_4 	TimesIntoBackoff 	0
scalar MyScenario.node[185].nic.mac1609_4 	SlotsBackoff 	0
scalar MyScenario.node[185].nic.mac1609_4 	NumInternalContention 	0
scalar MyScenario.node[185].nic.mac1609_4 	totalBusyTime 	0
scalar MyScenario.node[185].veinsmobility 	startTime 	1
scalar MyScenario.node[185].veinsmobility 	totalTime 	46
scalar MyScenario.node[185].veinsmobility 	stopTime 	48
scalar MyScenario.node[185].veinsmobility 	minSpeed 	1.6248905004235
scalar MyScenario.node[185].veinsmobility 	maxSpeed 	13.829672408034
scalar MyScenario.node[185].veinsmobility 	totalDistance 	466.59886029486
scalar MyScenario.node[185].veinsmobility 	totalCO2Emission 	168.99559266748
scalar MyScenario.node[124].appl 	generatedWSMs 	1
scalar MyScenario.node[124].appl 	receivedWSMs 	6
scalar MyScenario.node[124].appl 	generatedBSMs 	0
scalar MyScenario.node[124].appl 	receivedBSMs 	0
scalar MyScenario.node[124].appl 	generatedWSAs 	0
scalar MyScenario.node[124].appl 	receivedWSAs 	0
scalar MyScenario.node[124].nic.phy80211p 	busyTime 	0.00015466666666667
scalar MyScenario.node[124].nic.mac1609_4 	ReceivedUnicastPackets 	0
scalar MyScenario.node[124].nic.mac1609_4 	ReceivedBroadcasts 	6
scalar MyScenario.node[124].nic.mac1609_4 	SentPackets 	1
scalar MyScenario.node[124].nic.mac1609_4 	SNIRLostPackets 	26
scalar MyScenario.node[124].nic.mac1609_4 	RXTXLostPackets 	10
scalar MyScenario.node[124].nic.mac1609_4 	TotalLostPackets 	36
scalar MyScenario.node[124].nic.mac1609_4 	DroppedPacketsInMac 	0
scalar MyScenario.node[124].nic.mac1609_4 	TooLittleTime 	0
scalar MyScenario.node[124].nic.mac1609_4 	TimesIntoBackoff 	1
scalar MyScenario.node[124].nic.mac1609_4 	SlotsBackoff 	0
scalar MyScenario.node[124].nic.mac1609_4 	NumInternalContention 	0
scalar MyScenario.node[124].nic.mac1609_4 	totalBusyTime 	0.003481
scalar MyScenario.node[124].veinsmobility 	startTime 	1
scalar MyScenario.node[124].veinsmobility 	totalTime 	47
scalar MyScenario.node[124].veinsmobility 	stopTime 	49
scalar MyScenario.node[124].veinsmobility 	minSpeed 	1.6826570840785
scalar MyScenario.node[124].veinsmobility 	maxSpeed 	13.837243574578
scalar MyScenario.node[124].veinsmobility 	totalDistance 	475.56640866914
scalar MyScenario.node[124].veinsmobility 	totalCO2Emission 	167.57557222261
scalar MyScenario.node[122].appl 	generatedWSMs 	0
scalar MyScenario.node[122].appl 	receivedWSMs 	0
scalar MyScenario.node[122].appl 	generatedBSMs 	0
scalar MyScenario.node[122].appl 	receivedBSMs 	0
scalar MyScenario.node[122].appl 	generatedWSAs 	0
scalar MyScenario.node[122].appl 	receivedWSAs 	0
scalar MyScenario.node[122].nic.phy80211p 	busyTime 	0
scalar MyScenario.node[122].nic.mac1609_4 	ReceivedUnicastPackets 	0
scalar MyScenario.node[122].nic.mac1609_4 	ReceivedBroadcasts 	0
scalar MyScenario.node[122].nic.mac1609_4 	SentPackets 	0
scalar MyScenario.node[122].nic.mac1609_4 	SNIRLostPackets 	0
scalar MyScenario.node[122].nic.mac1609_4 	RXTXLostPackets 	0
scalar MyScenario.node[122].nic.mac1609_4 	TotalLostPackets 	0
scalar MyScenario.node[122].nic.mac1609_4 	DroppedPacketsInMac 	0
scalar MyScenario.node[122].nic.mac1609_4 	TooLittleTime 	0
scalar MyScenario.node[122].nic.mac1609_4 	TimesIntoBackoff 	0
scalar MyScenario.node[122].nic.mac1609_4 	SlotsBackoff 	0
scalar MyScenario.node[122].nic.mac1609_4 	NumInternalContention 	0
scalar MyScenario.node[122].nic.mac1609_4 	totalBusyTime 	0
scalar MyScenario.node[122].veinsmobility 	startTime 	1
scalar MyScenario.node[122].veinsmobility 	totalTime 	48
scalar MyScenario.node[122].veinsmobility 	stopTime 	50
scalar MyScenario.node[122].veinsmobility 	minSpeed 	1.4538957853569
scalar MyScenario.node[122].veinsmobility 	maxSpeed 	13.761981995869
scalar MyScenario.node[122].veinsmobility 	totalDistance 	472.79651783692
scalar MyScenario.node[122].veinsmobility 	totalCO2Emission 	152.09212169305
scalar MyScenario.node[18].appl 	generatedWSMs 	1
scalar MyScenario.node[18].appl 	receivedWSMs 	5
scalar MyScenario.node[18].appl 	generatedBSMs 	0
scalar MyScenario.node[18].appl 	receivedBSMs 	0
scalar MyScenario.node[18].appl 	generatedWSAs 	0
scalar MyScenario.node[18].appl 	receivedWSAs 	0
scalar MyScenario.node[18].nic.phy80211p 	busyTime 	0.00019412244897959
scalar MyScenario.node[18].nic.mac1609_4 	ReceivedUnicastPackets 	0
scalar MyScenario.node[18].nic.mac1609_4 	ReceivedBroadcasts 	5
scalar MyScenario.node[18].nic.mac1609_4 	SentPackets 	1
scalar MyScenario.node[18].nic.mac1609_4 	SNIRLostPackets 	36
scalar MyScenario.node[18].nic.mac1609_4 	RXTXLostPackets 	10
scalar MyScenario.node[18].nic.mac1609_4 	TotalLostPackets 	46
scalar MyScenario.node[18].nic.mac1609_4 	DroppedPacketsInMac 	0
scalar MyScenario.node[18].nic.mac1609_4 	TooLittleTime 	0
scalar MyScenario.node[18].nic.mac1609_4 	TimesIntoBackoff 	1
scalar MyScenario.node[18].nic.mac1609_4 	SlotsBackoff 	3
scalar MyScenario.node[18].nic.mac1609_4 	NumInternalContention 	0
scalar MyScenario.node[18].nic.mac1609_4 	totalBusyTime 	0.002553005397
scalar MyScenario.node[18].veinsmobility 	startTime 	1
scalar MyScenario.node[18].veinsmobility 	totalTime 	48
scalar MyScenario.node[18].veinsmobility 	stopTime 	50
scalar MyScenario.node[18].veinsmobility 	minSpeed 	2.2560351798544
scalar MyScenario.node[18].veinsmobility 	maxSpeed 	13.882287309435
scalar MyScenario.node[18].veinsmobility 	totalDistance 	564.70478920489
scalar MyScenario.node[18].veinsmobility 	totalCO2Emission 	155.62644857954
scalar MyScenario.node[264].appl 	generatedWSMs 	1
scalar MyScenario.node[264].appl 	receivedWSMs 	20
scalar MyScenario.node[264].appl 	generatedBSMs 	0
scalar MyScenario.node[264].appl 	receivedBSMs 	0
scalar MyScenario.node[264].appl 	generatedWSAs 	0
scalar MyScenario.node[264].appl 	receivedWSAs 	0
scalar MyScenario.node[264].nic.phy80211p 	busyTime 	0.00020783333333333
scalar MyScenario.node[264].nic.mac1609_4 	ReceivedUnicastPackets 	0
scalar MyScenario.node[264].nic.mac1609_4 	ReceivedBroadcasts 	20
scalar MyScenario.node[264].nic.mac1609_4 	SentPackets 	1
scalar MyScenario.node[264].nic.mac1609_4 	SNIRLostPackets 	23
scalar MyScenario.node[264].nic.mac1609_4 	RXTXLostPackets 	13
scalar MyScenario.node[264].nic.mac1609_4 	TotalLostPackets 	36
scalar MyScenario.node[264].nic.mac1609_4 	DroppedPacketsInMac 	0
scalar MyScenario.node[264].nic.mac1609_4 	TooLittleTime 	0
scalar MyScenario.node[264].nic.mac1609_4 	TimesIntoBackoff 	1
scalar MyScenario.node[264].nic.mac1609_4 	SlotsBackoff 	1
scalar MyScenario.node[264].nic.mac1609_4 	NumInternalContention 	0
scalar MyScenario.node[264].nic.mac1609_4 	totalBusyTime 	0.006265050204
scalar MyScenario.node[264].veinsmobility 	startTime 	4
scalar MyScenario.node[264].veinsmobility 	totalTime 	47
scalar MyScenario.node[264].veinsmobility 	stopTime 	52
scalar MyScenario.node[264].veinsmobility 	minSpeed 	1.6323247482302
scalar MyScenario.node[264].veinsmobility 	maxSpeed 	13.832003744692
scalar MyScenario.node[264].veinsmobility 	totalDistance 	570.57563705256
scalar MyScenario.node[264].veinsmobility 	totalCO2Emission 	127.30383961711
scalar MyScenario.node[207].appl 	generatedWSMs 	1
scalar MyScenario.node[207].appl 	receivedWSMs 	3
scalar MyScenario.node[207].appl 	generatedBSMs 	0
scalar MyScenario.node[207].appl 	receivedBSMs 	0
scalar MyScenario.node[207].appl 	generatedWSAs 	0
scalar MyScenario.node[207].appl 	receivedWSAs 	0
scalar MyScenario.node[207].nic.phy80211p 	busyTime 	0.00014556862745098
scalar MyScenario.node[207].nic.mac1609_4 	ReceivedUnicastPackets 	0
scalar MyScenario.node[207].nic.mac1609_4 	ReceivedBroadcasts 	3
scalar MyScenario.node[207].nic.mac1609_4 	SentPackets 	1
scalar MyScenario.node[207].nic.mac1609_4 	SNIRLostPackets 	29
scalar MyScenario.node[207].nic.mac1609_4 	RXTXLostPackets 	12
scalar MyScenario.node[207].nic.mac1609_4 	TotalLostPackets 	41
scalar MyScenario.node[207].nic.mac1609_4 	DroppedPacketsInMac 	0
scalar MyScenario.node[207].nic.mac1609_4 	TooLittleTime 	0
scalar MyScenario.node[207].nic.mac1609_4 	TimesIntoBackoff 	1
scalar MyScenario.node[207].nic.mac1609_4 	SlotsBackoff 	2
scalar MyScenario.node[207].nic.mac1609_4 	NumInternalContention 	0
scalar MyScenario.node[207].nic.mac1609_4 	totalBusyTime 	0.001625036833
scalar MyScenario.node[207].veinsmobility 	startTime 	1
scalar MyScenario.node[207].veinsmobility 	totalTime 	50
scalar MyScenario.node[207].veinsmobility 	stopTime 	52
scalar MyScenario.node[207].veinsmobility 	minSpeed 	1.4870031147497
scalar MyScenario.node[207].veinsmobility 	maxSpeed 	13.796697686613
scalar MyScenario.node[207].veinsmobility 	totalDistance 	572.49478923692
scalar MyScenario.node[207].veinsmobility 	totalCO2Emission 	157.69216577445
scalar MyScenario.node[8].appl 	generatedWSMs 	0
scalar MyScenario.node[8].appl 	receivedWSMs 	0
scalar MyScenario.node[8].appl 	generatedBSMs 	0
scalar MyScenario.node[8].appl 	receivedBSMs 	0
scalar MyScenario.node[8].appl 	generatedWSAs 	0
scalar MyScenario.node[8].appl 	receivedWSAs 	0
scalar MyScenario.node[8].nic.phy80211p 	busyTime 	0
scalar MyScenario.node[8].nic.mac1609_4 	ReceivedUnicastPackets 	0
scalar MyScenario.node[8].nic.mac1609_4 	ReceivedBroadcasts 	0
scalar MyScenario.node[8].nic.mac1609_4 	SentPackets 	0
scalar MyScenario.node[8].nic.mac1609_4 	SNIRLostPackets 	0
scalar MyScenario.node[8].nic.mac1609_4 	RXTXLostPackets 	0
scalar MyScenario.node[8].nic.mac1609_4 	TotalLostPackets 	0
scalar MyScenario.node[8].nic.mac1609_4 	DroppedPacketsInMac 	0
scalar MyScenario.node[8].nic.mac1609_4 	TooLittleTime 	0
scalar MyScenario.node[8].nic.mac1609_4 	TimesIntoBackoff 	0
scalar MyScenario.node[8].nic.mac1609_4 	SlotsBackoff 	0
scalar MyScenario.node[8].nic.mac1609_4 	NumInternalContention 	0
scalar MyScenario.node[8].nic.mac1609_4 	totalBusyTime 	0
scalar MyScenario.node[8].veinsmobility 	startTime 	1
scalar MyScenario.node[8].veinsmobility 	totalTime 	50
scalar MyScenario.node[8].veinsmobility 	stopTime 	52
scalar MyScenario.node[8].veinsmobility 	minSpeed 	1.2043788765148e-05
scalar MyScenario.node[8].veinsmobility 	maxSpeed 	13.890328430617
scalar MyScenario.node[8].veinsmobility 	totalDistance 	372.67005519066
scalar MyScenario.node[8].veinsmobility 	totalCO2Emission 	132.63595597756
scalar MyScenario.node[210].appl 	generatedWSMs 	0
scalar MyScenario.node[210].appl 	receivedWSMs 	0
scalar MyScenario.node[210].appl 	generatedBSMs 	0
scalar MyScenario.node[210].appl 	receivedBSMs 	0
scalar MyScenario.node[210].appl 	generatedWSAs 	0
scalar MyScenario.node[210].appl 	receivedWSAs 	0
scalar MyScenario.node[210].nic.phy80211p 	busyTime 	0
scalar MyScenario.node[210].nic.mac1609_4 	ReceivedUnicastPackets 	0
scalar MyScenario.node[210].nic.mac1609_4 	ReceivedBroadcasts 	0
scalar MyScenario.node[210].nic.mac1609_4 	SentPackets 	0
scalar MyScenario.node[210].nic.mac1609_4 	SNIRLostPackets 	0
scalar MyScenario.node[210].nic.mac1609_4 	RXTXLostPackets 	0
scalar MyScenario.node[210].nic.mac1609_4 	TotalLostPackets 	0
scalar MyScenario.node[210].nic.mac1609_4 	DroppedPacketsInMac 	0
scalar MyScenario.node[210].nic.mac1609_4 	TooLittleTime 	0
scalar MyScenario.node[210].nic.mac1609_4 	TimesIntoBackoff 	0
scalar MyScenario.node[210].nic.mac1609_4 	SlotsBackoff 	0
scalar MyScenario.node[210].nic.mac1609_4 	NumInternalContention 	0
scalar MyScenario.node[210].nic.mac1609_4 	totalBusyTime 	0
scalar MyScenario.node[210].veinsmobility 	startTime 	1
scalar MyScenario.node[210].veinsmobility 	totalTime 	51
scalar MyScenario.node[210].veinsmobility 	stopTime 	53
scalar MyScenario.node[210].veinsmobility 	minSpeed 	1.8384405842982
scalar MyScenario.node[210].veinsmobility 	maxSpeed 	13.863240209105
scalar MyScenario.node[210].veinsmobility 	totalDistance 	576.60715554752
scalar MyScenario.node[210].veinsmobility 	totalCO2Emission 	169.75481849021
scalar MyScenario.node[190].appl 	generatedWSMs 	1
scalar MyScenario.node[190].appl 	receivedWSMs 	1
scalar MyScenario.node[190].appl 	generatedBSMs 	0
scalar MyScenario.node[190].appl 	receivedBSMs 	0
scalar MyScenario.node[190].appl 	generatedWSAs 	0
scalar MyScenario.node[190].appl 	receivedWSAs 	0
scalar MyScenario.node[190].nic.phy80211p 	busyTime 	2.2307692307692e-05
scalar MyScenario.node[190].nic.mac1609_4 	ReceivedUnicastPackets 	0
scalar MyScenario.node[190].nic.mac1609_4 	ReceivedBroadcasts 	1
scalar MyScenario.node[190].nic.mac1609_4 	SentPackets 	1
scalar MyScenario.node[190].nic.mac1609_4 	SNIRLostPackets 	4
scalar MyScenario.node[190].nic.mac1609_4 	RXTXLostPackets 	15
scalar MyScenario.node[190].nic.mac1609_4 	TotalLostPackets 	19
scalar MyScenario.node[190].nic.mac1609_4 	DroppedPacketsInMac 	0
scalar MyScenario.node[190].nic.mac1609_4 	TooLittleTime 	0
scalar MyScenario.node[190].nic.mac1609_4 	TimesIntoBackoff 	1
scalar MyScenario.node[190].nic.mac1609_4 	SlotsBackoff 	3
scalar MyScenario.node[190].nic.mac1609_4 	NumInternalContention 	0
scalar MyScenario.node[190].nic.mac1609_4 	totalBusyTime 	0.000929246478
scalar MyScenario.node[190].veinsmobility 	startTime 	1
scalar MyScenario.node[190].veinsmobility 	totalTime 	51
scalar MyScenario.node[190].veinsmobility 	stopTime 	53
scalar MyScenario.node[190].veinsmobility 	minSpeed 	1.9582808221225
scalar MyScenario.node[190].veinsmobility 	maxSpeed 	13.734409552906
scalar MyScenario.node[190].veinsmobility 	totalDistance 	557.64612047202
scalar MyScenario.node[190].veinsmobility 	totalCO2Emission 	156.53426643749
scalar MyScenario.node[133].appl 	generatedWSMs 	1
scalar MyScenario.node[133].appl 	receivedWSMs 	8
scalar MyScenario.node[133].appl 	generatedBSMs 	0
scalar MyScenario.node[133].appl 	receivedBSMs 	0
scalar MyScenario.node[133].appl 	generatedWSAs 	0
scalar MyScenario.node[133].appl 	receivedWSAs 	0
scalar MyScenario.node[133].nic.phy80211p 	busyTime 	0.00014723076923077
scalar MyScenario.node[133].nic.mac1609_4 	ReceivedUnicastPackets 	0
scalar MyScenario.node[133].nic.mac1609_4 	ReceivedBroadcasts 	8
scalar MyScenario.node[133].nic.mac1609_4 	SentPackets 	1
scalar MyScenario.node[133].nic.mac1609_4 	SNIRLostPackets 	25
scalar MyScenario.node[133].nic.mac1609_4 	RXTXLostPackets 	3
scalar MyScenario.node[133].nic.mac1609_4 	TotalLostPackets 	28
scalar MyScenario.node[133].nic.mac1609_4 	DroppedPacketsInMac 	0
scalar MyScenario.node[133].nic.mac1609_4 	TooLittleTime 	0
scalar MyScenario.node[133].nic.mac1609_4 	TimesIntoBackoff 	1
scalar MyScenario.node[133].nic.mac1609_4 	SlotsBackoff 	1
scalar MyScenario.node[133].nic.mac1609_4 	NumInternalContention 	0
scalar MyScenario.node[133].nic.mac1609_4 	totalBusyTime 	0.003713
scalar MyScenario.node[133].veinsmobility 	startTime 	1
scalar MyScenario.node[133].veinsmobility 	totalTime 	51
scalar MyScenario.node[133].veinsmobility 	stopTime 	53
scalar MyScenario.node[133].veinsmobility 	minSpeed 	1.2623470114671
scalar MyScenario.node[133].veinsmobility 	maxSpeed 	13.899069204717
scalar MyScenario.node[133].veinsmobility 	totalDistance 	573.88738776025
scalar MyScenario.node[133].veinsmobility 	totalCO2Emission 	160.16710632596
scalar MyScenario.node[289].appl 	generatedWSMs 	1
scalar MyScenario.node[289].appl 	receivedWSMs 	5
scalar MyScenario.node[289].appl 	generatedBSMs 	0
scalar MyScenario.node[289].appl 	receivedBSMs 	0
scalar MyScenario.node[289].appl 	generatedWSAs 	0
scalar MyScenario.node[289].appl 	receivedWSAs 	0
scalar MyScenario.node[289].nic.phy80211p 	busyTime 	0.00021344
scalar MyScenario.node[289].nic.mac1609_4 	ReceivedUnicastPackets 	0
scalar MyScenario.node[289].nic.mac1609_4 	ReceivedBroadcasts 	5
scalar MyScenario.node[289].nic.mac1609_4 	SentPackets 	1
scalar MyScenario.node[289].nic.mac1609_4 	SNIRLostPackets 	41
scalar MyScenario.node[289].nic.mac1609_4 	RXTXLostPackets 	1
scalar MyScenario.node[289].nic.mac1609_4 	TotalLostPackets 	42
scalar MyScenario.node[289].nic.mac1609_4 	DroppedPacketsInMac 	0
scalar MyScenario.node[289].nic.mac1609_4 	TooLittleTime 	0
scalar MyScenario.node[289].nic.mac1609_4 	TimesIntoBackoff 	1
scalar MyScenario.node[289].nic.mac1609_4 	SlotsBackoff 	3
scalar MyScenario.node[289].nic.mac1609_4 	NumInternalContention 	0
scalar MyScenario.node[289].nic.mac1609_4 	totalBusyTime 	0.003017054333
scalar MyScenario.node[289].veinsmobility 	startTime 	4
scalar MyScenario.node[289].veinsmobility 	totalTime 	49
scalar MyScenario.node[289].veinsmobility 	stopTime 	54
scalar MyScenario.node[289].veinsmobility 	minSpeed 	0.043930228375864
scalar MyScenario.node[289].veinsmobility 	maxSpeed 	13.80588370699
scalar MyScenario.node[289].veinsmobility 	totalDistance 	481.85481907608
scalar MyScenario.node[289].veinsmobility 	totalCO2Emission 	130.08780272366
scalar MyScenario.node[294].appl 	generatedWSMs 	1
scalar MyScenario.node[294].appl 	receivedWSMs 	1
scalar MyScenario.node[294].appl 	generatedBSMs 	0
scalar MyScenario.node[294].appl 	receivedBSMs 	0
scalar MyScenario.node[294].appl 	generatedWSAs 	0
scalar MyScenario.node[294].appl 	receivedWSAs 	0
scalar MyScenario.node[294].nic.phy80211p 	busyTime 	4.64e-06
scalar MyScenario.node[294].nic.mac1609_4 	ReceivedUnicastPackets 	0
scalar MyScenario.node[294].nic.mac1609_4 	ReceivedBroadcasts 	1
scalar MyScenario.node[294].nic.mac1609_4 	SentPackets 	1
[...]
scalar MyScenario.node[47].nic.mac1609_4 	TimesIntoBackoff 	0
scalar MyScenario.node[47].nic.mac1609_4 	SlotsBackoff 	0
scalar MyScenario.node[47].nic.mac1609_4 	NumInternalContention 	0
scalar MyScenario.node[47].nic.mac1609_4 	totalBusyTime 	0.000232
scalar MyScenario.node[47].veinsmobility 	startTime 	1
scalar MyScenario.node[47].veinsmobility 	totalTime 	175
scalar MyScenario.node[47].veinsmobility 	stopTime 	177
scalar MyScenario.node[47].veinsmobility 	minSpeed 	1.1272845673847e-13
scalar MyScenario.node[47].veinsmobility 	maxSpeed 	13.890307950694
scalar MyScenario.node[47].veinsmobility 	totalDistance 	1462.672220734
scalar MyScenario.node[47].veinsmobility 	totalCO2Emission 	493.86635474369
scalar MyScenario.node[61].appl 	generatedWSMs 	1
scalar MyScenario.node[61].appl 	receivedWSMs 	4
scalar MyScenario.node[61].appl 	generatedBSMs 	0
scalar MyScenario.node[61].appl 	receivedBSMs 	0
scalar MyScenario.node[61].appl 	generatedWSAs 	0
scalar MyScenario.node[61].appl 	receivedWSAs 	0
scalar MyScenario.node[61].nic.phy80211p 	busyTime 	5.1409090909091e-05
scalar MyScenario.node[61].nic.mac1609_4 	ReceivedUnicastPackets 	0
scalar MyScenario.node[61].nic.mac1609_4 	ReceivedBroadcasts 	4
scalar MyScenario.node[61].nic.mac1609_4 	SentPackets 	1
scalar MyScenario.node[61].nic.mac1609_4 	SNIRLostPackets 	35
scalar MyScenario.node[61].nic.mac1609_4 	RXTXLostPackets 	12
scalar MyScenario.node[61].nic.mac1609_4 	TotalLostPackets 	47
scalar MyScenario.node[61].nic.mac1609_4 	DroppedPacketsInMac 	0
scalar MyScenario.node[61].nic.mac1609_4 	TooLittleTime 	0
scalar MyScenario.node[61].nic.mac1609_4 	TimesIntoBackoff 	1
scalar MyScenario.node[61].nic.mac1609_4 	SlotsBackoff 	3
scalar MyScenario.node[61].nic.mac1609_4 	NumInternalContention 	0
scalar MyScenario.node[61].nic.mac1609_4 	totalBusyTime 	0.002089189736
scalar MyScenario.node[61].veinsmobility 	startTime 	1
scalar MyScenario.node[61].veinsmobility 	totalTime 	175
scalar MyScenario.node[61].veinsmobility 	stopTime 	177
scalar MyScenario.node[61].veinsmobility 	minSpeed 	2.3037725740343e-11
scalar MyScenario.node[61].veinsmobility 	maxSpeed 	13.813698625239
scalar MyScenario.node[61].veinsmobility 	totalDistance 	1180.6430419688
scalar MyScenario.node[61].veinsmobility 	totalCO2Emission 	497.03311103554
scalar MyScenario.node[186].appl 	generatedWSMs 	1
scalar MyScenario.node[186].appl 	receivedWSMs 	3
scalar MyScenario.node[186].appl 	generatedBSMs 	0
scalar MyScenario.node[186].appl 	receivedBSMs 	0
scalar MyScenario.node[186].appl 	generatedWSAs 	0
scalar MyScenario.node[186].appl 	receivedWSAs 	0
scalar MyScenario.node[186].nic.phy80211p 	busyTime 	3.9101123595506e-05
scalar MyScenario.node[186].nic.mac1609_4 	ReceivedUnicastPackets 	0
scalar MyScenario.node[186].nic.mac1609_4 	ReceivedBroadcasts 	3
scalar MyScenario.node[186].nic.mac1609_4 	SentPackets 	1
scalar MyScenario.node[186].nic.mac1609_4 	SNIRLostPackets 	27
scalar MyScenario.node[186].nic.mac1609_4 	RXTXLostPackets 	18
scalar MyScenario.node[186].nic.mac1609_4 	TotalLostPackets 	45
scalar MyScenario.node[186].nic.mac1609_4 	DroppedPacketsInMac 	0
scalar MyScenario.node[186].nic.mac1609_4 	TooLittleTime 	0
scalar MyScenario.node[186].nic.mac1609_4 	TimesIntoBackoff 	1
scalar MyScenario.node[186].nic.mac1609_4 	SlotsBackoff 	1
scalar MyScenario.node[186].nic.mac1609_4 	NumInternalContention 	0
scalar MyScenario.node[186].nic.mac1609_4 	totalBusyTime 	0.001857201618
scalar MyScenario.node[186].veinsmobility 	startTime 	1
scalar MyScenario.node[186].veinsmobility 	totalTime 	177
scalar MyScenario.node[186].veinsmobility 	stopTime 	179
scalar MyScenario.node[186].veinsmobility 	minSpeed 	1.3359779217054e-14
scalar MyScenario.node[186].veinsmobility 	maxSpeed 	13.893585229642
scalar MyScenario.node[186].veinsmobility 	totalDistance 	1360.3584452038
scalar MyScenario.node[186].veinsmobility 	totalCO2Emission 	503.27884839241
scalar MyScenario.node[223].appl 	generatedWSMs 	0
scalar MyScenario.node[223].appl 	receivedWSMs 	0
scalar MyScenario.node[223].appl 	generatedBSMs 	0
scalar MyScenario.node[223].appl 	receivedBSMs 	0
scalar MyScenario.node[223].appl 	generatedWSAs 	0
scalar MyScenario.node[223].appl 	receivedWSAs 	0
scalar MyScenario.node[223].nic.phy80211p 	busyTime 	3.8032786885246e-06
scalar MyScenario.node[223].nic.mac1609_4 	ReceivedUnicastPackets 	0
scalar MyScenario.node[223].nic.mac1609_4 	ReceivedBroadcasts 	0
scalar MyScenario.node[223].nic.mac1609_4 	SentPackets 	0
scalar MyScenario.node[223].nic.mac1609_4 	SNIRLostPackets 	3
scalar MyScenario.node[223].nic.mac1609_4 	RXTXLostPackets 	0
scalar MyScenario.node[223].nic.mac1609_4 	TotalLostPackets 	3
scalar MyScenario.node[223].nic.mac1609_4 	DroppedPacketsInMac 	0
scalar MyScenario.node[223].nic.mac1609_4 	TooLittleTime 	0
scalar MyScenario.node[223].nic.mac1609_4 	TimesIntoBackoff 	0
scalar MyScenario.node[223].nic.mac1609_4 	SlotsBackoff 	0
scalar MyScenario.node[223].nic.mac1609_4 	NumInternalContention 	0
scalar MyScenario.node[223].nic.mac1609_4 	totalBusyTime 	0.000232
scalar MyScenario.node[223].veinsmobility 	startTime 	1
scalar MyScenario.node[223].veinsmobility 	totalTime 	182
scalar MyScenario.node[223].veinsmobility 	stopTime 	184
scalar MyScenario.node[223].veinsmobility 	minSpeed 	2.5099790901377e-12
scalar MyScenario.node[223].veinsmobility 	maxSpeed 	13.898917099927
scalar MyScenario.node[223].veinsmobility 	totalDistance 	1573.6642644119
scalar MyScenario.node[223].veinsmobility 	totalCO2Emission 	506.61790764678
scalar MyScenario.node[263].appl 	generatedWSMs 	1
scalar MyScenario.node[263].appl 	receivedWSMs 	15
scalar MyScenario.node[263].appl 	generatedBSMs 	0
scalar MyScenario.node[263].appl 	receivedBSMs 	0
scalar MyScenario.node[263].appl 	generatedWSAs 	0
scalar MyScenario.node[263].appl 	receivedWSAs 	0
scalar MyScenario.node[263].nic.phy80211p 	busyTime 	8.3217391304348e-05
scalar MyScenario.node[263].nic.mac1609_4 	ReceivedUnicastPackets 	0
scalar MyScenario.node[263].nic.mac1609_4 	ReceivedBroadcasts 	15
scalar MyScenario.node[263].nic.mac1609_4 	SentPackets 	1
scalar MyScenario.node[263].nic.mac1609_4 	SNIRLostPackets 	51
scalar MyScenario.node[263].nic.mac1609_4 	RXTXLostPackets 	13
scalar MyScenario.node[263].nic.mac1609_4 	TotalLostPackets 	64
scalar MyScenario.node[263].nic.mac1609_4 	DroppedPacketsInMac 	0
scalar MyScenario.node[263].nic.mac1609_4 	TooLittleTime 	0
scalar MyScenario.node[263].nic.mac1609_4 	TimesIntoBackoff 	1
scalar MyScenario.node[263].nic.mac1609_4 	SlotsBackoff 	2
scalar MyScenario.node[263].nic.mac1609_4 	NumInternalContention 	0
scalar MyScenario.node[263].nic.mac1609_4 	totalBusyTime 	0.006033057934
scalar MyScenario.node[263].veinsmobility 	startTime 	4
scalar MyScenario.node[263].veinsmobility 	totalTime 	183
scalar MyScenario.node[263].veinsmobility 	stopTime 	188
scalar MyScenario.node[263].veinsmobility 	minSpeed 	4.2402257941499e-15
scalar MyScenario.node[263].veinsmobility 	maxSpeed 	13.864033237845
scalar MyScenario.node[263].veinsmobility 	totalDistance 	1373.4780193707
scalar MyScenario.node[263].veinsmobility 	totalCO2Emission 	455.701742826
scalar MyScenario.node[347].appl 	generatedWSMs 	1
scalar MyScenario.node[347].appl 	receivedWSMs 	19
scalar MyScenario.node[347].appl 	generatedBSMs 	0
scalar MyScenario.node[347].appl 	receivedBSMs 	0
scalar MyScenario.node[347].appl 	generatedWSAs 	0
scalar MyScenario.node[347].appl 	receivedWSAs 	0
scalar MyScenario.node[347].nic.phy80211p 	busyTime 	3.9300546448087e-05
scalar MyScenario.node[347].nic.mac1609_4 	ReceivedUnicastPackets 	0
scalar MyScenario.node[347].nic.mac1609_4 	ReceivedBroadcasts 	19
scalar MyScenario.node[347].nic.mac1609_4 	SentPackets 	1
scalar MyScenario.node[347].nic.mac1609_4 	SNIRLostPackets 	12
scalar MyScenario.node[347].nic.mac1609_4 	RXTXLostPackets 	5
scalar MyScenario.node[347].nic.mac1609_4 	TotalLostPackets 	17
scalar MyScenario.node[347].nic.mac1609_4 	DroppedPacketsInMac 	0
scalar MyScenario.node[347].nic.mac1609_4 	TooLittleTime 	0
scalar MyScenario.node[347].nic.mac1609_4 	TimesIntoBackoff 	1
scalar MyScenario.node[347].nic.mac1609_4 	SlotsBackoff 	0
scalar MyScenario.node[347].nic.mac1609_4 	NumInternalContention 	0
scalar MyScenario.node[347].nic.mac1609_4 	totalBusyTime 	0.005569
scalar MyScenario.node[347].veinsmobility 	startTime 	7
scalar MyScenario.node[347].veinsmobility 	totalTime 	182
scalar MyScenario.node[347].veinsmobility 	stopTime 	190
scalar MyScenario.node[347].veinsmobility 	minSpeed 	5.5176348522748e-08
scalar MyScenario.node[347].veinsmobility 	maxSpeed 	13.877061405242
scalar MyScenario.node[347].veinsmobility 	totalDistance 	1268.1698915138
scalar MyScenario.node[347].veinsmobility 	totalCO2Emission 	487.29495037683
scalar MyScenario.node[120].appl 	generatedWSMs 	1
scalar MyScenario.node[120].appl 	receivedWSMs 	2
scalar MyScenario.node[120].appl 	generatedBSMs 	0
scalar MyScenario.node[120].appl 	receivedBSMs 	0
scalar MyScenario.node[120].appl 	generatedWSAs 	0
scalar MyScenario.node[120].appl 	receivedWSAs 	0
scalar MyScenario.node[120].nic.phy80211p 	busyTime 	6.9968253968254e-05
scalar MyScenario.node[120].nic.mac1609_4 	ReceivedUnicastPackets 	0
scalar MyScenario.node[120].nic.mac1609_4 	ReceivedBroadcasts 	2
scalar MyScenario.node[120].nic.mac1609_4 	SentPackets 	1
scalar MyScenario.node[120].nic.mac1609_4 	SNIRLostPackets 	55
scalar MyScenario.node[120].nic.mac1609_4 	RXTXLostPackets 	0
scalar MyScenario.node[120].nic.mac1609_4 	TotalLostPackets 	55
scalar MyScenario.node[120].nic.mac1609_4 	DroppedPacketsInMac 	0
scalar MyScenario.node[120].nic.mac1609_4 	TooLittleTime 	0
scalar MyScenario.node[120].nic.mac1609_4 	TimesIntoBackoff 	2
scalar MyScenario.node[120].nic.mac1609_4 	SlotsBackoff 	2
scalar MyScenario.node[120].nic.mac1609_4 	NumInternalContention 	0
scalar MyScenario.node[120].nic.mac1609_4 	totalBusyTime 	0.001857119865
scalar MyScenario.node[120].veinsmobility 	startTime 	1
scalar MyScenario.node[120].veinsmobility 	totalTime 	188
scalar MyScenario.node[120].veinsmobility 	stopTime 	190
scalar MyScenario.node[120].veinsmobility 	minSpeed 	1.5703373769513e-05
scalar MyScenario.node[120].veinsmobility 	maxSpeed 	13.843823510059
scalar MyScenario.node[120].veinsmobility 	totalDistance 	1476.6043310056
scalar MyScenario.node[120].veinsmobility 	totalCO2Emission 	511.56898961876
scalar MyScenario.node[247].appl 	generatedWSMs 	1
scalar MyScenario.node[247].appl 	receivedWSMs 	2
scalar MyScenario.node[247].appl 	generatedBSMs 	0
scalar MyScenario.node[247].appl 	receivedBSMs 	0
scalar MyScenario.node[247].appl 	generatedWSAs 	0
scalar MyScenario.node[247].appl 	receivedWSAs 	0
scalar MyScenario.node[247].nic.phy80211p 	busyTime 	2.468085106383e-05
scalar MyScenario.node[247].nic.mac1609_4 	ReceivedUnicastPackets 	0
scalar MyScenario.node[247].nic.mac1609_4 	ReceivedBroadcasts 	2
scalar MyScenario.node[247].nic.mac1609_4 	SentPackets 	1
scalar MyScenario.node[247].nic.mac1609_4 	SNIRLostPackets 	18
scalar MyScenario.node[247].nic.mac1609_4 	RXTXLostPackets 	12
scalar MyScenario.node[247].nic.mac1609_4 	TotalLostPackets 	30
scalar MyScenario.node[247].nic.mac1609_4 	DroppedPacketsInMac 	0
scalar MyScenario.node[247].nic.mac1609_4 	TooLittleTime 	0
scalar MyScenario.node[247].nic.mac1609_4 	TimesIntoBackoff 	1
scalar MyScenario.node[247].nic.mac1609_4 	SlotsBackoff 	1
scalar MyScenario.node[247].nic.mac1609_4 	NumInternalContention 	0
scalar MyScenario.node[247].nic.mac1609_4 	totalBusyTime 	0.001161072311
scalar MyScenario.node[247].veinsmobility 	startTime 	4
scalar MyScenario.node[247].veinsmobility 	totalTime 	187
scalar MyScenario.node[247].veinsmobility 	stopTime 	192
scalar MyScenario.node[247].veinsmobility 	minSpeed 	5.0437064823467e-13
scalar MyScenario.node[247].veinsmobility 	maxSpeed 	13.881492665899
scalar MyScenario.node[247].veinsmobility 	totalDistance 	1469.4510074149
scalar MyScenario.node[247].veinsmobility 	totalCO2Emission 	466.95514881561
scalar MyScenario.node[283].appl 	generatedWSMs 	1
scalar MyScenario.node[283].appl 	receivedWSMs 	24
scalar MyScenario.node[283].appl 	generatedBSMs 	0
scalar MyScenario.node[283].appl 	receivedBSMs 	0
scalar MyScenario.node[283].appl 	generatedWSAs 	0
scalar MyScenario.node[283].appl 	receivedWSAs 	0
scalar MyScenario.node[283].nic.phy80211p 	busyTime 	5.4947368421053e-05
scalar MyScenario.node[283].nic.mac1609_4 	ReceivedUnicastPackets 	0
scalar MyScenario.node[283].nic.mac1609_4 	ReceivedBroadcasts 	24
scalar MyScenario.node[283].nic.mac1609_4 	SentPackets 	1
scalar MyScenario.node[283].nic.mac1609_4 	SNIRLostPackets 	21
scalar MyScenario.node[283].nic.mac1609_4 	RXTXLostPackets 	17
scalar MyScenario.node[283].nic.mac1609_4 	TotalLostPackets 	38
scalar MyScenario.node[283].nic.mac1609_4 	DroppedPacketsInMac 	0
scalar MyScenario.node[283].nic.mac1609_4 	TooLittleTime 	0
scalar MyScenario.node[283].nic.mac1609_4 	TimesIntoBackoff 	1
scalar MyScenario.node[283].nic.mac1609_4 	SlotsBackoff 	1
scalar MyScenario.node[283].nic.mac1609_4 	NumInternalContention 	0
scalar MyScenario.node[283].nic.mac1609_4 	totalBusyTime 	0.007193022456
scalar MyScenario.node[283].veinsmobility 	startTime 	4
scalar MyScenario.node[283].veinsmobility 	totalTime 	189
scalar MyScenario.node[283].veinsmobility 	stopTime 	194
scalar MyScenario.node[283].veinsmobility 	minSpeed 	3.4671333539224e-05
scalar MyScenario.node[283].veinsmobility 	maxSpeed 	13.898685949389
scalar MyScenario.node[283].veinsmobility 	totalDistance 	1461.7951770323
scalar MyScenario.node[283].veinsmobility 	totalCO2Emission 	514.99729633563
scalar MyScenario.node[308].appl 	generatedWSMs 	1
scalar MyScenario.node[308].appl 	receivedWSMs 	2
scalar MyScenario.node[308].appl 	generatedBSMs 	0
scalar MyScenario.node[308].appl 	receivedBSMs 	0
scalar MyScenario.node[308].appl 	generatedWSAs 	0
scalar MyScenario.node[308].appl 	receivedWSAs 	0
scalar MyScenario.node[308].nic.phy80211p 	busyTime 	3.1581151832461e-05
scalar MyScenario.node[308].nic.mac1609_4 	ReceivedUnicastPackets 	0
scalar MyScenario.node[308].nic.mac1609_4 	ReceivedBroadcasts 	2
scalar MyScenario.node[308].nic.mac1609_4 	SentPackets 	1
scalar MyScenario.node[308].nic.mac1609_4 	SNIRLostPackets 	24
scalar MyScenario.node[308].nic.mac1609_4 	RXTXLostPackets 	18
scalar MyScenario.node[308].nic.mac1609_4 	TotalLostPackets 	42
scalar MyScenario.node[308].nic.mac1609_4 	DroppedPacketsInMac 	0
scalar MyScenario.node[308].nic.mac1609_4 	TooLittleTime 	0
scalar MyScenario.node[308].nic.mac1609_4 	TimesIntoBackoff 	1
scalar MyScenario.node[308].nic.mac1609_4 	SlotsBackoff 	2
scalar MyScenario.node[308].nic.mac1609_4 	NumInternalContention 	0
scalar MyScenario.node[308].nic.mac1609_4 	totalBusyTime 	0.001625155334
scalar MyScenario.node[308].veinsmobility 	startTime 	4
scalar MyScenario.node[308].veinsmobility 	totalTime 	190
scalar MyScenario.node[308].veinsmobility 	stopTime 	195
scalar MyScenario.node[308].veinsmobility 	minSpeed 	5.6043610218695e-10
scalar MyScenario.node[308].veinsmobility 	maxSpeed 	13.879845637199
scalar MyScenario.node[308].veinsmobility 	totalDistance 	1453.498535774
scalar MyScenario.node[308].veinsmobility 	totalCO2Emission 	509.66428528474
scalar MyScenario.node[129].appl 	generatedWSMs 	1
scalar MyScenario.node[129].appl 	receivedWSMs 	23
scalar MyScenario.node[129].appl 	generatedBSMs 	0
scalar MyScenario.node[129].appl 	receivedBSMs 	0
scalar MyScenario.node[129].appl 	generatedWSAs 	0
scalar MyScenario.node[129].appl 	receivedWSAs 	0
scalar MyScenario.node[129].nic.phy80211p 	busyTime 	7.7731958762886e-05
scalar MyScenario.node[129].nic.mac1609_4 	ReceivedUnicastPackets 	0
scalar MyScenario.node[129].nic.mac1609_4 	ReceivedBroadcasts 	23
scalar MyScenario.node[129].nic.mac1609_4 	SentPackets 	1
scalar MyScenario.node[129].nic.mac1609_4 	SNIRLostPackets 	42
scalar MyScenario.node[129].nic.mac1609_4 	RXTXLostPackets 	18
scalar MyScenario.node[129].nic.mac1609_4 	TotalLostPackets 	60
scalar MyScenario.node[129].nic.mac1609_4 	DroppedPacketsInMac 	0
scalar MyScenario.node[129].nic.mac1609_4 	TooLittleTime 	0
scalar MyScenario.node[129].nic.mac1609_4 	TimesIntoBackoff 	1
scalar MyScenario.node[129].nic.mac1609_4 	SlotsBackoff 	1
scalar MyScenario.node[129].nic.mac1609_4 	NumInternalContention 	0
scalar MyScenario.node[129].nic.mac1609_4 	totalBusyTime 	0.007657057142
scalar MyScenario.node[129].veinsmobility 	startTime 	1
scalar MyScenario.node[129].veinsmobility 	totalTime 	193
scalar MyScenario.node[129].veinsmobility 	stopTime 	195
scalar MyScenario.node[129].veinsmobility 	minSpeed 	0
scalar MyScenario.node[129].veinsmobility 	maxSpeed 	13.848284885556
scalar MyScenario.node[129].veinsmobility 	totalDistance 	1278.6635021526
scalar MyScenario.node[129].veinsmobility 	totalCO2Emission 	443.75643930192
scalar MyScenario.node[225].appl 	generatedWSMs 	1
scalar MyScenario.node[225].appl 	receivedWSMs 	24
scalar MyScenario.node[225].appl 	generatedBSMs 	0
scalar MyScenario.node[225].appl 	receivedBSMs 	0
scalar MyScenario.node[225].appl 	generatedWSAs 	0
scalar MyScenario.node[225].appl 	receivedWSAs 	0
scalar MyScenario.node[225].nic.phy80211p 	busyTime 	7.694472361809e-05
scalar MyScenario.node[225].nic.mac1609_4 	ReceivedUnicastPackets 	0
scalar MyScenario.node[225].nic.mac1609_4 	ReceivedBroadcasts 	24
scalar MyScenario.node[225].nic.mac1609_4 	SentPackets 	1
scalar MyScenario.node[225].nic.mac1609_4 	SNIRLostPackets 	42
scalar MyScenario.node[225].nic.mac1609_4 	RXTXLostPackets 	21
scalar MyScenario.node[225].nic.mac1609_4 	TotalLostPackets 	63
scalar MyScenario.node[225].nic.mac1609_4 	DroppedPacketsInMac 	0
scalar MyScenario.node[225].nic.mac1609_4 	TooLittleTime 	0
scalar MyScenario.node[225].nic.mac1609_4 	TimesIntoBackoff 	1
scalar MyScenario.node[225].nic.mac1609_4 	SlotsBackoff 	0
scalar MyScenario.node[225].nic.mac1609_4 	NumInternalContention 	0
scalar MyScenario.node[225].nic.mac1609_4 	totalBusyTime 	0.007657034885
scalar MyScenario.node[225].veinsmobility 	startTime 	1
scalar MyScenario.node[225].veinsmobility 	totalTime 	198
scalar MyScenario.node[225].veinsmobility 	stopTime 	200
scalar MyScenario.node[225].veinsmobility 	minSpeed 	4.9165928409073e-05
scalar MyScenario.node[225].veinsmobility 	maxSpeed 	13.881715428573
scalar MyScenario.node[225].veinsmobility 	totalDistance 	1576.8808963834
scalar MyScenario.node[225].veinsmobility 	totalCO2Emission 	536.07718202205
scalar MyScenario.node[384].appl 	generatedWSMs 	1
scalar MyScenario.node[384].appl 	receivedWSMs 	1
scalar MyScenario.node[384].appl 	generatedBSMs 	0
scalar MyScenario.node[384].appl 	receivedBSMs 	0
scalar MyScenario.node[384].appl 	generatedWSAs 	0
scalar MyScenario.node[384].appl 	receivedWSAs 	0
scalar MyScenario.node[384].nic.phy80211p 	busyTime 	8.7962085308057e-06
scalar MyScenario.node[384].nic.mac1609_4 	ReceivedUnicastPackets 	0
scalar MyScenario.node[384].nic.mac1609_4 	ReceivedBroadcasts 	1
scalar MyScenario.node[384].nic.mac1609_4 	SentPackets 	1
scalar MyScenario.node[384].nic.mac1609_4 	SNIRLostPackets 	7
scalar MyScenario.node[384].nic.mac1609_4 	RXTXLostPackets 	18
scalar MyScenario.node[384].nic.mac1609_4 	TotalLostPackets 	25
scalar MyScenario.node[384].nic.mac1609_4 	DroppedPacketsInMac 	0
scalar MyScenario.node[384].nic.mac1609_4 	TooLittleTime 	0
scalar MyScenario.node[384].nic.mac1609_4 	TimesIntoBackoff 	1
scalar MyScenario.node[384].nic.mac1609_4 	SlotsBackoff 	3
scalar MyScenario.node[384].nic.mac1609_4 	NumInternalContention 	0
scalar MyScenario.node[384].nic.mac1609_4 	totalBusyTime 	0.001161007715
scalar MyScenario.node[384].veinsmobility 	startTime 	10
scalar MyScenario.node[384].veinsmobility 	totalTime 	210
scalar MyScenario.node[384].veinsmobility 	stopTime 	221
scalar MyScenario.node[384].veinsmobility 	minSpeed 	3.325100984193e-05
scalar MyScenario.node[384].veinsmobility 	maxSpeed 	13.883930567349
scalar MyScenario.node[384].veinsmobility 	totalDistance 	1674.9832453485
scalar MyScenario.node[384].veinsmobility 	totalCO2Emission 	552.44777910077
