version 2
run General-38-20170829-17:52:45-8100
attr configname General
attr datetime 20170829-17:52:45
attr density 400
attr experiment General
attr inifile omnetpp.ini
attr iterationvars $density=400
attr iterationvars2 "$density=400, $repetition=8"
attr measurement $density=400
attr network com.liborio.pi.MyScenario
attr processid 8100
attr repetition 8
attr replication #8
attr resultdir results
attr runnumber 38
attr seedset 8
param **.coreDebug false
param **.debug false
param *.**.nic.mac1609_4.bitrate 6Mbps
param *.**.nic.mac1609_4.txPower 20mW
param *.**.nic.mac1609_4.useServiceChannel true
param *.**.nic.phy80211p.analogueModels "xmldoc(\"config.xml\")"
param *.**.nic.phy80211p.antenna "xmldoc(\"antenna.xml\", \"/root/Antenna[@id='monopole']\")"
param *.**.nic.phy80211p.decider "xmldoc(\"config.xml\")"
param *.**.nic.phy80211p.sensitivity -84.39dBm
param *.**.nic.phy80211p.thermalNoise -110dBm
param *.**.nic.phy80211p.usePropagationDelay true
param *.**.nic.phy80211p.useThermalNoise true
param *.annotations.draw true
param *.connectionManager.drawMaxIntfDist false
param *.connectionManager.maxInterfDist 2600m
param *.connectionManager.sendDirect true
param *.manager.autoShutdown true
param *.manager.host "\"localhost\""
param *.manager.launchConfig "xmldoc(string(${density = 100, 200, 300, 400})+\"_\"+ string(${repetition})+\".launchd.xml\")"
param *.manager.port 9999
param *.manager.updateInterval 1s
param *.node[*].appl.beaconInterval 1s
param *.node[*].appl.dataOnSch true
param *.node[*].appl.headerLength "80 bit"
param *.node[*].appl.isSource false
param *.node[*].appl.numMsgs 100
param *.node[*].appl.sendBeacons false
param *.node[*].appl.stopTrafficTime 130s
param *.node[*].appl.wsmInterval 3s
param *.node[*].applType "\"Flooding\""
param *.node[*].veinsmobility.x 0
param *.node[*].veinsmobility.y 0
param *.node[*].veinsmobility.z 1.895
param *.node[*].veinsmobilityType.debug true
param *.node[0].appl.isSource true
param *.playgroundSizeX 2500m
param *.playgroundSizeY 2500m
param *.playgroundSizeZ 50m

scalar . 	density 	400
scalar MyScenario.node[101].appl 	generatedWSMs 	0
scalar MyScenario.node[101].appl 	receivedWSMs 	0
scalar MyScenario.node[101].appl 	generatedBSMs 	0
scalar MyScenario.node[101].appl 	receivedBSMs 	0
scalar MyScenario.node[101].appl 	generatedWSAs 	0
scalar MyScenario.node[101].appl 	receivedWSAs 	0
scalar MyScenario.node[101].nic.phy80211p 	busyTime 	0
scalar MyScenario.node[101].nic.mac1609_4 	ReceivedUnicastPackets 	0
scalar MyScenario.node[101].nic.mac1609_4 	ReceivedBroadcasts 	0
scalar MyScenario.node[101].nic.mac1609_4 	SentPackets 	0
scalar MyScenario.node[101].nic.mac1609_4 	SNIRLostPackets 	0
scalar MyScenario.node[101].nic.mac1609_4 	RXTXLostPackets 	0
scalar MyScenario.node[101].nic.mac1609_4 	TotalLostPackets 	0
scalar MyScenario.node[101].nic.mac1609_4 	DroppedPacketsInMac 	0
scalar MyScenario.node[101].nic.mac1609_4 	TooLittleTime 	0
scalar MyScenario.node[101].nic.mac1609_4 	TimesIntoBackoff 	0
scalar MyScenario.node[101].nic.mac1609_4 	SlotsBackoff 	0
scalar MyScenario.node[101].nic.mac1609_4 	NumInternalContention 	0
scalar MyScenario.node[101].nic.mac1609_4 	totalBusyTime 	0
scalar MyScenario.node[101].veinsmobility 	startTime 	1
scalar MyScenario.node[101].veinsmobility 	totalTime 	9
scalar MyScenario.node[101].veinsmobility 	stopTime 	11
scalar MyScenario.node[101].veinsmobility 	minSpeed 	1.7656916523119
scalar MyScenario.node[101].veinsmobility 	maxSpeed 	13.721166143217
scalar MyScenario.node[101].veinsmobility 	totalDistance 	81.268902282766
scalar MyScenario.node[101].veinsmobility 	totalCO2Emission 	37.778404225581
scalar MyScenario.node[147].appl 	generatedWSMs 	0
scalar MyScenario.node[147].appl 	receivedWSMs 	0
scalar MyScenario.node[147].appl 	generatedBSMs 	0
scalar MyScenario.node[147].appl 	receivedBSMs 	0
scalar MyScenario.node[147].appl 	generatedWSAs 	0
scalar MyScenario.node[147].appl 	receivedWSAs 	0
scalar MyScenario.node[147].nic.phy80211p 	busyTime 	0.0001856
scalar MyScenario.node[147].nic.mac1609_4 	ReceivedUnicastPackets 	0
scalar MyScenario.node[147].nic.mac1609_4 	ReceivedBroadcasts 	0
scalar MyScenario.node[147].nic.mac1609_4 	SentPackets 	0
scalar MyScenario.node[147].nic.mac1609_4 	SNIRLostPackets 	8
scalar MyScenario.node[147].nic.mac1609_4 	RXTXLostPackets 	0
scalar MyScenario.node[147].nic.mac1609_4 	TotalLostPackets 	8
scalar MyScenario.node[147].nic.mac1609_4 	DroppedPacketsInMac 	0
scalar MyScenario.node[147].nic.mac1609_4 	TooLittleTime 	0
scalar MyScenario.node[147].nic.mac1609_4 	TimesIntoBackoff 	0
scalar MyScenario.node[147].nic.mac1609_4 	SlotsBackoff 	0
scalar MyScenario.node[147].nic.mac1609_4 	NumInternalContention 	0
scalar MyScenario.node[147].nic.mac1609_4 	totalBusyTime 	0.000232
scalar MyScenario.node[147].veinsmobility 	startTime 	1
scalar MyScenario.node[147].veinsmobility 	totalTime 	9
scalar MyScenario.node[147].veinsmobility 	stopTime 	11
scalar MyScenario.node[147].veinsmobility 	minSpeed 	2.2633218863746
scalar MyScenario.node[147].veinsmobility 	maxSpeed 	13.671533899475
scalar MyScenario.node[147].veinsmobility 	totalDistance 	83.367333541741
scalar MyScenario.node[147].veinsmobility 	totalCO2Emission 	37.203368341041
scalar MyScenario.node[199].appl 	generatedWSMs 	0
scalar MyScenario.node[199].appl 	receivedWSMs 	0
scalar MyScenario.node[199].appl 	generatedBSMs 	0
scalar MyScenario.node[199].appl 	receivedBSMs 	0
scalar MyScenario.node[199].appl 	generatedWSAs 	0
scalar MyScenario.node[199].appl 	receivedWSAs 	0
scalar MyScenario.node[199].nic.phy80211p 	busyTime 	4.64e-05
scalar MyScenario.node[199].nic.mac1609_4 	ReceivedUnicastPackets 	0
scalar MyScenario.node[199].nic.mac1609_4 	ReceivedBroadcasts 	0
scalar MyScenario.node[199].nic.mac1609_4 	SentPackets 	0
scalar MyScenario.node[199].nic.mac1609_4 	SNIRLostPackets 	2
scalar MyScenario.node[199].nic.mac1609_4 	RXTXLostPackets 	0
scalar MyScenario.node[199].nic.mac1609_4 	TotalLostPackets 	2
scalar MyScenario.node[199].nic.mac1609_4 	DroppedPacketsInMac 	0
scalar MyScenario.node[199].nic.mac1609_4 	TooLittleTime 	0
scalar MyScenario.node[199].nic.mac1609_4 	TimesIntoBackoff 	0
scalar MyScenario.node[199].nic.mac1609_4 	SlotsBackoff 	0
scalar MyScenario.node[199].nic.mac1609_4 	NumInternalContention 	0
scalar MyScenario.node[199].nic.mac1609_4 	totalBusyTime 	0.000232
scalar MyScenario.node[199].veinsmobility 	startTime 	1
scalar MyScenario.node[199].veinsmobility 	totalTime 	9
scalar MyScenario.node[199].veinsmobility 	stopTime 	11
scalar MyScenario.node[199].veinsmobility 	minSpeed 	2.1788105595624
scalar MyScenario.node[199].veinsmobility 	maxSpeed 	13.833727056882
scalar MyScenario.node[199].veinsmobility 	totalDistance 	86.250475058174
scalar MyScenario.node[199].veinsmobility 	totalCO2Emission 	38.806086876027
scalar MyScenario.node[116].appl 	generatedWSMs 	0
scalar MyScenario.node[116].appl 	receivedWSMs 	0
scalar MyScenario.node[116].appl 	generatedBSMs 	0
scalar MyScenario.node[116].appl 	receivedBSMs 	0
scalar MyScenario.node[116].appl 	generatedWSAs 	0
scalar MyScenario.node[116].appl 	receivedWSAs 	0
scalar MyScenario.node[116].nic.phy80211p 	busyTime 	0
scalar MyScenario.node[116].nic.mac1609_4 	ReceivedUnicastPackets 	0
scalar MyScenario.node[116].nic.mac1609_4 	ReceivedBroadcasts 	0
scalar MyScenario.node[116].nic.mac1609_4 	SentPackets 	0
scalar MyScenario.node[116].nic.mac1609_4 	SNIRLostPackets 	0
scalar MyScenario.node[116].nic.mac1609_4 	RXTXLostPackets 	0
scalar MyScenario.node[116].nic.mac1609_4 	TotalLostPackets 	0
scalar MyScenario.node[116].nic.mac1609_4 	DroppedPacketsInMac 	0
scalar MyScenario.node[116].nic.mac1609_4 	TooLittleTime 	0
scalar MyScenario.node[116].nic.mac1609_4 	TimesIntoBackoff 	0
scalar MyScenario.node[116].nic.mac1609_4 	SlotsBackoff 	0
scalar MyScenario.node[116].nic.mac1609_4 	NumInternalContention 	0
scalar MyScenario.node[116].nic.mac1609_4 	totalBusyTime 	0
scalar MyScenario.node[116].veinsmobility 	startTime 	1
scalar MyScenario.node[116].veinsmobility 	totalTime 	9
scalar MyScenario.node[116].veinsmobility 	stopTime 	11
scalar MyScenario.node[116].veinsmobility 	minSpeed 	1.7777817313559
scalar MyScenario.node[116].veinsmobility 	maxSpeed 	13.870684611215
scalar MyScenario.node[116].veinsmobility 	totalDistance 	83.537287250953
scalar MyScenario.node[116].veinsmobility 	totalCO2Emission 	38.374823917482
scalar MyScenario.node[89].appl 	generatedWSMs 	0
scalar MyScenario.node[89].appl 	receivedWSMs 	0
scalar MyScenario.node[89].appl 	generatedBSMs 	0
scalar MyScenario.node[89].appl 	receivedBSMs 	0
scalar MyScenario.node[89].appl 	generatedWSAs 	0
scalar MyScenario.node[89].appl 	receivedWSAs 	0
scalar MyScenario.node[89].nic.phy80211p 	busyTime 	0
scalar MyScenario.node[89].nic.mac1609_4 	ReceivedUnicastPackets 	0
scalar MyScenario.node[89].nic.mac1609_4 	ReceivedBroadcasts 	0
scalar MyScenario.node[89].nic.mac1609_4 	SentPackets 	0
scalar MyScenario.node[89].nic.mac1609_4 	SNIRLostPackets 	0
scalar MyScenario.node[89].nic.mac1609_4 	RXTXLostPackets 	0
scalar MyScenario.node[89].nic.mac1609_4 	TotalLostPackets 	0
scalar MyScenario.node[89].nic.mac1609_4 	DroppedPacketsInMac 	0
scalar MyScenario.node[89].nic.mac1609_4 	TooLittleTime 	0
scalar MyScenario.node[89].nic.mac1609_4 	TimesIntoBackoff 	0
scalar MyScenario.node[89].nic.mac1609_4 	SlotsBackoff 	0
scalar MyScenario.node[89].nic.mac1609_4 	NumInternalContention 	0
scalar MyScenario.node[89].nic.mac1609_4 	totalBusyTime 	0
scalar MyScenario.node[89].veinsmobility 	startTime 	1
scalar MyScenario.node[89].veinsmobility 	totalTime 	9
scalar MyScenario.node[89].veinsmobility 	stopTime 	11
scalar MyScenario.node[89].veinsmobility 	minSpeed 	2.5599426073255
scalar MyScenario.node[89].veinsmobility 	maxSpeed 	13.401073710248
scalar MyScenario.node[89].veinsmobility 	totalDistance 	84.575728080585
scalar MyScenario.node[89].veinsmobility 	totalCO2Emission 	37.278249557192
scalar MyScenario.node[37].appl 	generatedWSMs 	0
scalar MyScenario.node[37].appl 	receivedWSMs 	0
scalar MyScenario.node[37].appl 	generatedBSMs 	0
scalar MyScenario.node[37].appl 	receivedBSMs 	0
scalar MyScenario.node[37].appl 	generatedWSAs 	0
scalar MyScenario.node[37].appl 	receivedWSAs 	0
scalar MyScenario.node[37].nic.phy80211p 	busyTime 	0
scalar MyScenario.node[37].nic.mac1609_4 	ReceivedUnicastPackets 	0
scalar MyScenario.node[37].nic.mac1609_4 	ReceivedBroadcasts 	0
scalar MyScenario.node[37].nic.mac1609_4 	SentPackets 	0
scalar MyScenario.node[37].nic.mac1609_4 	SNIRLostPackets 	0
scalar MyScenario.node[37].nic.mac1609_4 	RXTXLostPackets 	0
scalar MyScenario.node[37].nic.mac1609_4 	TotalLostPackets 	0
scalar MyScenario.node[37].nic.mac1609_4 	DroppedPacketsInMac 	0
scalar MyScenario.node[37].nic.mac1609_4 	TooLittleTime 	0
scalar MyScenario.node[37].nic.mac1609_4 	TimesIntoBackoff 	0
scalar MyScenario.node[37].nic.mac1609_4 	SlotsBackoff 	0
scalar MyScenario.node[37].nic.mac1609_4 	NumInternalContention 	0
scalar MyScenario.node[37].nic.mac1609_4 	totalBusyTime 	0
scalar MyScenario.node[37].veinsmobility 	startTime 	1
scalar MyScenario.node[37].veinsmobility 	totalTime 	9
scalar MyScenario.node[37].veinsmobility 	stopTime 	11
scalar MyScenario.node[37].veinsmobility 	minSpeed 	2.551924849092
scalar MyScenario.node[37].veinsmobility 	maxSpeed 	13.796996606258
scalar MyScenario.node[37].veinsmobility 	totalDistance 	86.473043116447
scalar MyScenario.node[37].veinsmobility 	totalCO2Emission 	38.634951154652
scalar MyScenario.node[51].appl 	generatedWSMs 	0
scalar MyScenario.node[51].appl 	receivedWSMs 	0
scalar MyScenario.node[51].appl 	generatedBSMs 	0
scalar MyScenario.node[51].appl 	receivedBSMs 	0
scalar MyScenario.node[51].appl 	generatedWSAs 	0
scalar MyScenario.node[51].appl 	receivedWSAs 	0
scalar MyScenario.node[51].nic.phy80211p 	busyTime 	0
scalar MyScenario.node[51].nic.mac1609_4 	ReceivedUnicastPackets 	0
scalar MyScenario.node[51].nic.mac1609_4 	ReceivedBroadcasts 	0
scalar MyScenario.node[51].nic.mac1609_4 	SentPackets 	0
scalar MyScenario.node[51].nic.mac1609_4 	SNIRLostPackets 	0
scalar MyScenario.node[51].nic.mac1609_4 	RXTXLostPackets 	0
scalar MyScenario.node[51].nic.mac1609_4 	TotalLostPackets 	0
scalar MyScenario.node[51].nic.mac1609_4 	DroppedPacketsInMac 	0
scalar MyScenario.node[51].nic.mac1609_4 	TooLittleTime 	0
scalar MyScenario.node[51].nic.mac1609_4 	TimesIntoBackoff 	0
scalar MyScenario.node[51].nic.mac1609_4 	SlotsBackoff 	0
scalar MyScenario.node[51].nic.mac1609_4 	NumInternalContention 	0
scalar MyScenario.node[51].nic.mac1609_4 	totalBusyTime 	0
scalar MyScenario.node[51].veinsmobility 	startTime 	1
scalar MyScenario.node[51].veinsmobility 	totalTime 	10
scalar MyScenario.node[51].veinsmobility 	stopTime 	12
scalar MyScenario.node[51].veinsmobility 	minSpeed 	2.232523256517
scalar MyScenario.node[51].veinsmobility 	maxSpeed 	13.254868420539
scalar MyScenario.node[51].veinsmobility 	totalDistance 	93.483464302621
scalar MyScenario.node[51].veinsmobility 	totalCO2Emission 	38.367688347004
scalar MyScenario.node[212].appl 	generatedWSMs 	0
scalar MyScenario.node[212].appl 	receivedWSMs 	0
scalar MyScenario.node[212].appl 	generatedBSMs 	0
scalar MyScenario.node[212].appl 	receivedBSMs 	0
scalar MyScenario.node[212].appl 	generatedWSAs 	0
scalar MyScenario.node[212].appl 	receivedWSAs 	0
scalar MyScenario.node[212].nic.phy80211p 	busyTime 	0
scalar MyScenario.node[212].nic.mac1609_4 	ReceivedUnicastPackets 	0
scalar MyScenario.node[212].nic.mac1609_4 	ReceivedBroadcasts 	0
scalar MyScenario.node[212].nic.mac1609_4 	SentPackets 	0
scalar MyScenario.node[212].nic.mac1609_4 	SNIRLostPackets 	0
scalar MyScenario.node[212].nic.mac1609_4 	RXTXLostPackets 	0
scalar MyScenario.node[212].nic.mac1609_4 	TotalLostPackets 	0
scalar MyScenario.node[212].nic.mac1609_4 	DroppedPacketsInMac 	0
scalar MyScenario.node[212].nic.mac1609_4 	TooLittleTime 	0
scalar MyScenario.node[212].nic.mac1609_4 	TimesIntoBackoff 	0
scalar MyScenario.node[212].nic.mac1609_4 	SlotsBackoff 	0
scalar MyScenario.node[212].nic.mac1609_4 	NumInternalContention 	0
scalar MyScenario.node[212].nic.mac1609_4 	totalBusyTime 	0
scalar MyScenario.node[212].veinsmobility 	startTime 	1
scalar MyScenario.node[212].veinsmobility 	totalTime 	10
scalar MyScenario.node[212].veinsmobility 	stopTime 	12
scalar MyScenario.node[212].veinsmobility 	minSpeed 	1.4954863288905
scalar MyScenario.node[212].veinsmobility 	maxSpeed 	13.664226106764
scalar MyScenario.node[212].veinsmobility 	totalDistance 	88.314031909619
scalar MyScenario.node[212].veinsmobility 	totalCO2Emission 	40.139560150004
scalar MyScenario.node[55].appl 	generatedWSMs 	0
scalar MyScenario.node[55].appl 	receivedWSMs 	0
scalar MyScenario.node[55].appl 	generatedBSMs 	0
scalar MyScenario.node[55].appl 	receivedBSMs 	0
scalar MyScenario.node[55].appl 	generatedWSAs 	0
scalar MyScenario.node[55].appl 	receivedWSAs 	0
scalar MyScenario.node[55].nic.phy80211p 	busyTime 	0
scalar MyScenario.node[55].nic.mac1609_4 	ReceivedUnicastPackets 	0
scalar MyScenario.node[55].nic.mac1609_4 	ReceivedBroadcasts 	0
scalar MyScenario.node[55].nic.mac1609_4 	SentPackets 	0
scalar MyScenario.node[55].nic.mac1609_4 	SNIRLostPackets 	0
scalar MyScenario.node[55].nic.mac1609_4 	RXTXLostPackets 	0
scalar MyScenario.node[55].nic.mac1609_4 	TotalLostPackets 	0
scalar MyScenario.node[55].nic.mac1609_4 	DroppedPacketsInMac 	0
scalar MyScenario.node[55].nic.mac1609_4 	TooLittleTime 	0
scalar MyScenario.node[55].nic.mac1609_4 	TimesIntoBackoff 	0
scalar MyScenario.node[55].nic.mac1609_4 	SlotsBackoff 	0
scalar MyScenario.node[55].nic.mac1609_4 	NumInternalContention 	0
scalar MyScenario.node[55].nic.mac1609_4 	totalBusyTime 	0
scalar MyScenario.node[55].veinsmobility 	startTime 	1
scalar MyScenario.node[55].veinsmobility 	totalTime 	10
scalar MyScenario.node[55].veinsmobility 	stopTime 	12
scalar MyScenario.node[55].veinsmobility 	minSpeed 	1.6731768667698
scalar MyScenario.node[55].veinsmobility 	maxSpeed 	13.861360725015
scalar MyScenario.node[55].veinsmobility 	totalDistance 	91.365930560375
scalar MyScenario.node[55].veinsmobility 	totalCO2Emission 	40.348868296337
scalar MyScenario.node[247].appl 	generatedWSMs 	0
scalar MyScenario.node[247].appl 	receivedWSMs 	0
scalar MyScenario.node[247].appl 	generatedBSMs 	0
scalar MyScenario.node[247].appl 	receivedBSMs 	0
scalar MyScenario.node[247].appl 	generatedWSAs 	0
scalar MyScenario.node[247].appl 	receivedWSAs 	0
scalar MyScenario.node[247].nic.phy80211p 	busyTime 	2.32e-05
scalar MyScenario.node[247].nic.mac1609_4 	ReceivedUnicastPackets 	0
scalar MyScenario.node[247].nic.mac1609_4 	ReceivedBroadcasts 	0
scalar MyScenario.node[247].nic.mac1609_4 	SentPackets 	0
scalar MyScenario.node[247].nic.mac1609_4 	SNIRLostPackets 	1
scalar MyScenario.node[247].nic.mac1609_4 	RXTXLostPackets 	0
scalar MyScenario.node[247].nic.mac1609_4 	TotalLostPackets 	1
scalar MyScenario.node[247].nic.mac1609_4 	DroppedPacketsInMac 	0
scalar MyScenario.node[247].nic.mac1609_4 	TooLittleTime 	0
scalar MyScenario.node[247].nic.mac1609_4 	TimesIntoBackoff 	0
scalar MyScenario.node[247].nic.mac1609_4 	SlotsBackoff 	0
scalar MyScenario.node[247].nic.mac1609_4 	NumInternalContention 	0
scalar MyScenario.node[247].nic.mac1609_4 	totalBusyTime 	0.000232
scalar MyScenario.node[247].veinsmobility 	startTime 	4
scalar MyScenario.node[247].veinsmobility 	totalTime 	9
scalar MyScenario.node[247].veinsmobility 	stopTime 	14
scalar MyScenario.node[247].veinsmobility 	minSpeed 	2.2617768780328
scalar MyScenario.node[247].veinsmobility 	maxSpeed 	13.74983682395
scalar MyScenario.node[247].veinsmobility 	totalDistance 	83.499943877594
scalar MyScenario.node[247].veinsmobility 	totalCO2Emission 	38.289865052863
scalar MyScenario.node[312].appl 	generatedWSMs 	1
scalar MyScenario.node[312].appl 	receivedWSMs 	4
scalar MyScenario.node[312].appl 	generatedBSMs 	0
scalar MyScenario.node[312].appl 	receivedBSMs 	0
scalar MyScenario.node[312].appl 	generatedWSAs 	0
scalar MyScenario.node[312].appl 	receivedWSAs 	0
scalar MyScenario.node[312].nic.phy80211p 	busyTime 	0.0005336
scalar MyScenario.node[312].nic.mac1609_4 	ReceivedUnicastPackets 	0
scalar MyScenario.node[312].nic.mac1609_4 	ReceivedBroadcasts 	4
scalar MyScenario.node[312].nic.mac1609_4 	SentPackets 	1
scalar MyScenario.node[312].nic.mac1609_4 	SNIRLostPackets 	19
scalar MyScenario.node[312].nic.mac1609_4 	RXTXLostPackets 	2
scalar MyScenario.node[312].nic.mac1609_4 	TotalLostPackets 	21
scalar MyScenario.node[312].nic.mac1609_4 	DroppedPacketsInMac 	0
scalar MyScenario.node[312].nic.mac1609_4 	TooLittleTime 	0
scalar MyScenario.node[312].nic.mac1609_4 	TimesIntoBackoff 	1
scalar MyScenario.node[312].nic.mac1609_4 	SlotsBackoff 	3
scalar MyScenario.node[312].nic.mac1609_4 	NumInternalContention 	0
scalar MyScenario.node[312].nic.mac1609_4 	totalBusyTime 	0.002089
scalar MyScenario.node[312].veinsmobility 	startTime 	4
scalar MyScenario.node[312].veinsmobility 	totalTime 	9
scalar MyScenario.node[312].veinsmobility 	stopTime 	14
scalar MyScenario.node[312].veinsmobility 	minSpeed 	2.0639529990731
scalar MyScenario.node[312].veinsmobility 	maxSpeed 	13.024420166621
scalar MyScenario.node[312].veinsmobility 	totalDistance 	84.733656521467
scalar MyScenario.node[312].veinsmobility 	totalCO2Emission 	35.58876233764
scalar MyScenario.node[246].appl 	generatedWSMs 	0
scalar MyScenario.node[246].appl 	receivedWSMs 	0
scalar MyScenario.node[246].appl 	generatedBSMs 	0
scalar MyScenario.node[246].appl 	receivedBSMs 	0
scalar MyScenario.node[246].appl 	generatedWSAs 	0
scalar MyScenario.node[246].appl 	receivedWSAs 	0
scalar MyScenario.node[246].nic.phy80211p 	busyTime 	0
scalar MyScenario.node[246].nic.mac1609_4 	ReceivedUnicastPackets 	0
scalar MyScenario.node[246].nic.mac1609_4 	ReceivedBroadcasts 	0
scalar MyScenario.node[246].nic.mac1609_4 	SentPackets 	0
scalar MyScenario.node[246].nic.mac1609_4 	SNIRLostPackets 	0
scalar MyScenario.node[246].nic.mac1609_4 	RXTXLostPackets 	0
scalar MyScenario.node[246].nic.mac1609_4 	TotalLostPackets 	0
scalar MyScenario.node[246].nic.mac1609_4 	DroppedPacketsInMac 	0
scalar MyScenario.node[246].nic.mac1609_4 	TooLittleTime 	0
scalar MyScenario.node[246].nic.mac1609_4 	TimesIntoBackoff 	0
scalar MyScenario.node[246].nic.mac1609_4 	SlotsBackoff 	0
scalar MyScenario.node[246].nic.mac1609_4 	NumInternalContention 	0
scalar MyScenario.node[246].nic.mac1609_4 	totalBusyTime 	0
scalar MyScenario.node[246].veinsmobility 	startTime 	4
scalar MyScenario.node[246].veinsmobility 	totalTime 	16
scalar MyScenario.node[246].veinsmobility 	stopTime 	21
scalar MyScenario.node[246].veinsmobility 	minSpeed 	2.1704511207621
scalar MyScenario.node[246].veinsmobility 	maxSpeed 	13.704275210551
scalar MyScenario.node[246].veinsmobility 	totalDistance 	180.17336566815
scalar MyScenario.node[246].veinsmobility 	totalCO2Emission 	54.740643848297
scalar MyScenario.node[152].appl 	generatedWSMs 	1
scalar MyScenario.node[152].appl 	receivedWSMs 	10
scalar MyScenario.node[152].appl 	generatedBSMs 	0
scalar MyScenario.node[152].appl 	receivedBSMs 	0
scalar MyScenario.node[152].appl 	generatedWSAs 	0
scalar MyScenario.node[152].appl 	receivedWSAs 	0
scalar MyScenario.node[152].nic.phy80211p 	busyTime 	0.00031552
scalar MyScenario.node[152].nic.mac1609_4 	ReceivedUnicastPackets 	0
scalar MyScenario.node[152].nic.mac1609_4 	ReceivedBroadcasts 	10
scalar MyScenario.node[152].nic.mac1609_4 	SentPackets 	1
scalar MyScenario.node[152].nic.mac1609_4 	SNIRLostPackets 	24
scalar MyScenario.node[152].nic.mac1609_4 	RXTXLostPackets 	21
scalar MyScenario.node[152].nic.mac1609_4 	TotalLostPackets 	45
scalar MyScenario.node[152].nic.mac1609_4 	DroppedPacketsInMac 	0
scalar MyScenario.node[152].nic.mac1609_4 	TooLittleTime 	0
scalar MyScenario.node[152].nic.mac1609_4 	TimesIntoBackoff 	1
scalar MyScenario.node[152].nic.mac1609_4 	SlotsBackoff 	0
scalar MyScenario.node[152].nic.mac1609_4 	NumInternalContention 	0
scalar MyScenario.node[152].nic.mac1609_4 	totalBusyTime 	0.00394525609
scalar MyScenario.node[152].veinsmobility 	startTime 	1
scalar MyScenario.node[152].veinsmobility 	totalTime 	24
scalar MyScenario.node[152].veinsmobility 	stopTime 	26
scalar MyScenario.node[152].veinsmobility 	minSpeed 	1.5609451891622
scalar MyScenario.node[152].veinsmobility 	maxSpeed 	13.778722804482
scalar MyScenario.node[152].veinsmobility 	totalDistance 	273.23387930903
scalar MyScenario.node[152].veinsmobility 	totalCO2Emission 	70.729480573055
scalar MyScenario.node[400].appl 	generatedWSMs 	0
scalar MyScenario.node[400].appl 	receivedWSMs 	0
scalar MyScenario.node[400].appl 	generatedBSMs 	0
scalar MyScenario.node[400].appl 	receivedBSMs 	0
scalar MyScenario.node[400].appl 	generatedWSAs 	0
scalar MyScenario.node[400].appl 	receivedWSAs 	0
scalar MyScenario.node[400].nic.phy80211p 	busyTime 	1.45e-05
scalar MyScenario.node[400].nic.mac1609_4 	ReceivedUnicastPackets 	0
scalar MyScenario.node[400].nic.mac1609_4 	ReceivedBroadcasts 	0
scalar MyScenario.node[400].nic.mac1609_4 	SentPackets 	0
scalar MyScenario.node[400].nic.mac1609_4 	SNIRLostPackets 	1
scalar MyScenario.node[400].nic.mac1609_4 	RXTXLostPackets 	0
scalar MyScenario.node[400].nic.mac1609_4 	TotalLostPackets 	1
scalar MyScenario.node[400].nic.mac1609_4 	DroppedPacketsInMac 	0
scalar MyScenario.node[400].nic.mac1609_4 	TooLittleTime 	0
scalar MyScenario.node[400].nic.mac1609_4 	TimesIntoBackoff 	0
scalar MyScenario.node[400].nic.mac1609_4 	SlotsBackoff 	0
scalar MyScenario.node[400].nic.mac1609_4 	NumInternalContention 	0
scalar MyScenario.node[400].nic.mac1609_4 	totalBusyTime 	0.000232
scalar MyScenario.node[400].veinsmobility 	startTime 	12
scalar MyScenario.node[400].veinsmobility 	totalTime 	15
scalar MyScenario.node[400].veinsmobility 	stopTime 	28
scalar MyScenario.node[400].veinsmobility 	minSpeed 	5.8537244899784
scalar MyScenario.node[400].veinsmobility 	maxSpeed 	13.760438209446
scalar MyScenario.node[400].veinsmobility 	totalDistance 	175.42264491601
scalar MyScenario.node[400].veinsmobility 	totalCO2Emission 	45.881677322054
scalar MyScenario.node[141].appl 	generatedWSMs 	1
scalar MyScenario.node[141].appl 	receivedWSMs 	8
scalar MyScenario.node[141].appl 	generatedBSMs 	0
scalar MyScenario.node[141].appl 	receivedBSMs 	0
scalar MyScenario.node[141].appl 	generatedWSAs 	0
scalar MyScenario.node[141].appl 	receivedWSAs 	0
scalar MyScenario.node[141].nic.phy80211p 	busyTime 	0.00024028571428571
scalar MyScenario.node[141].nic.mac1609_4 	ReceivedUnicastPackets 	0
scalar MyScenario.node[141].nic.mac1609_4 	ReceivedBroadcasts 	8
scalar MyScenario.node[141].nic.mac1609_4 	SentPackets 	1
scalar MyScenario.node[141].nic.mac1609_4 	SNIRLostPackets 	21
scalar MyScenario.node[141].nic.mac1609_4 	RXTXLostPackets 	5
scalar MyScenario.node[141].nic.mac1609_4 	TotalLostPackets 	26
scalar MyScenario.node[141].nic.mac1609_4 	DroppedPacketsInMac 	0
scalar MyScenario.node[141].nic.mac1609_4 	TooLittleTime 	0
scalar MyScenario.node[141].nic.mac1609_4 	TimesIntoBackoff 	1
scalar MyScenario.node[141].nic.mac1609_4 	SlotsBackoff 	3
scalar MyScenario.node[141].nic.mac1609_4 	NumInternalContention 	0
scalar MyScenario.node[141].nic.mac1609_4 	totalBusyTime 	0.003249
scalar MyScenario.node[141].veinsmobility 	startTime 	1
scalar MyScenario.node[141].veinsmobility 	totalTime 	27
scalar MyScenario.node[141].veinsmobility 	stopTime 	29
scalar MyScenario.node[141].veinsmobility 	minSpeed 	2.0770440255059
scalar MyScenario.node[141].veinsmobility 	maxSpeed 	13.69909867011
scalar MyScenario.node[141].veinsmobility 	totalDistance 	278.64726637886
scalar MyScenario.node[141].veinsmobility 	totalCO2Emission 	90.459994823629
scalar MyScenario.node[308].appl 	generatedWSMs 	0
scalar MyScenario.node[308].appl 	receivedWSMs 	0
scalar MyScenario.node[308].appl 	generatedBSMs 	0
scalar MyScenario.node[308].appl 	receivedBSMs 	0
scalar MyScenario.node[308].appl 	generatedWSAs 	0
scalar MyScenario.node[308].appl 	receivedWSAs 	0
scalar MyScenario.node[308].nic.phy80211p 	busyTime 	0
scalar MyScenario.node[308].nic.mac1609_4 	ReceivedUnicastPackets 	0
scalar MyScenario.node[308].nic.mac1609_4 	ReceivedBroadcasts 	0
scalar MyScenario.node[308].nic.mac1609_4 	SentPackets 	0
scalar MyScenario.node[308].nic.mac1609_4 	SNIRLostPackets 	0
scalar MyScenario.node[308].nic.mac1609_4 	RXTXLostPackets 	0
scalar MyScenario.node[308].nic.mac1609_4 	TotalLostPackets 	0
scalar MyScenario.node[308].nic.mac1609_4 	DroppedPacketsInMac 	0
scalar MyScenario.node[308].nic.mac1609_4 	TooLittleTime 	0
scalar MyScenario.node[308].nic.mac1609_4 	TimesIntoBackoff 	0
scalar MyScenario.node[308].nic.mac1609_4 	SlotsBackoff 	0
scalar MyScenario.node[308].nic.mac1609_4 	NumInternalContention 	0
scalar MyScenario.node[308].nic.mac1609_4 	totalBusyTime 	0
scalar MyScenario.node[308].veinsmobility 	startTime 	4
scalar MyScenario.node[308].veinsmobility 	totalTime 	25
scalar MyScenario.node[308].veinsmobility 	stopTime 	30
scalar MyScenario.node[308].veinsmobility 	minSpeed 	1.9785793007817
scalar MyScenario.node[308].veinsmobility 	maxSpeed 	13.844847251358
scalar MyScenario.node[308].veinsmobility 	totalDistance 	271.02309462012
scalar MyScenario.node[308].veinsmobility 	totalCO2Emission 	88.543029963666
scalar MyScenario.node[302].appl 	generatedWSMs 	1
scalar MyScenario.node[302].appl 	receivedWSMs 	5
scalar MyScenario.node[302].appl 	generatedBSMs 	0
scalar MyScenario.node[302].appl 	receivedBSMs 	0
scalar MyScenario.node[302].appl 	generatedWSAs 	0
scalar MyScenario.node[302].appl 	receivedWSAs 	0
scalar MyScenario.node[302].nic.phy80211p 	busyTime 	0.00039261538461538
scalar MyScenario.node[302].nic.mac1609_4 	ReceivedUnicastPackets 	0
scalar MyScenario.node[302].nic.mac1609_4 	ReceivedBroadcasts 	5
scalar MyScenario.node[302].nic.mac1609_4 	SentPackets 	1
scalar MyScenario.node[302].nic.mac1609_4 	SNIRLostPackets 	39
scalar MyScenario.node[302].nic.mac1609_4 	RXTXLostPackets 	6
scalar MyScenario.node[302].nic.mac1609_4 	TotalLostPackets 	45
scalar MyScenario.node[302].nic.mac1609_4 	DroppedPacketsInMac 	0
scalar MyScenario.node[302].nic.mac1609_4 	TooLittleTime 	0
scalar MyScenario.node[302].nic.mac1609_4 	TimesIntoBackoff 	1
scalar MyScenario.node[302].nic.mac1609_4 	SlotsBackoff 	1
scalar MyScenario.node[302].nic.mac1609_4 	NumInternalContention 	0
scalar MyScenario.node[302].nic.mac1609_4 	totalBusyTime 	0.003017137732
scalar MyScenario.node[302].veinsmobility 	startTime 	4
scalar MyScenario.node[302].veinsmobility 	totalTime 	25
scalar MyScenario.node[302].veinsmobility 	stopTime 	30
scalar MyScenario.node[302].veinsmobility 	minSpeed 	2.2246320520528
scalar MyScenario.node[302].veinsmobility 	maxSpeed 	13.845996287582
scalar MyScenario.node[302].veinsmobility 	totalDistance 	271.65665498472
scalar MyScenario.node[302].veinsmobility 	totalCO2Emission 	86.304179828542
scalar MyScenario.node[295].appl 	generatedWSMs 	0
scalar MyScenario.node[295].appl 	receivedWSMs 	0
scalar MyScenario.node[295].appl 	generatedBSMs 	0
scalar MyScenario.node[295].appl 	receivedBSMs 	0
scalar MyScenario.node[295].appl 	generatedWSAs 	0
scalar MyScenario.node[295].appl 	receivedWSAs 	0
scalar MyScenario.node[295].nic.phy80211p 	busyTime 	0
scalar MyScenario.node[295].nic.mac1609_4 	ReceivedUnicastPackets 	0
scalar MyScenario.node[295].nic.mac1609_4 	ReceivedBroadcasts 	0
scalar MyScenario.node[295].nic.mac1609_4 	SentPackets 	0
scalar MyScenario.node[295].nic.mac1609_4 	SNIRLostPackets 	0
scalar MyScenario.node[295].nic.mac1609_4 	RXTXLostPackets 	0
scalar MyScenario.node[295].nic.mac1609_4 	TotalLostPackets 	0
scalar MyScenario.node[295].nic.mac1609_4 	DroppedPacketsInMac 	0
scalar MyScenario.node[295].nic.mac1609_4 	TooLittleTime 	0
scalar MyScenario.node[295].nic.mac1609_4 	TimesIntoBackoff 	0
scalar MyScenario.node[295].nic.mac1609_4 	SlotsBackoff 	0
scalar MyScenario.node[295].nic.mac1609_4 	NumInternalContention 	0
scalar MyScenario.node[295].nic.mac1609_4 	totalBusyTime 	0
scalar MyScenario.node[295].veinsmobility 	startTime 	4
scalar MyScenario.node[295].veinsmobility 	totalTime 	26
scalar MyScenario.node[295].veinsmobility 	stopTime 	31
scalar MyScenario.node[295].veinsmobility 	minSpeed 	1.4614278463129
scalar MyScenario.node[295].veinsmobility 	maxSpeed 	13.803408844699
scalar MyScenario.node[295].veinsmobility 	totalDistance 	268.25554040037
scalar MyScenario.node[295].veinsmobility 	totalCO2Emission 	90.572289830186
scalar MyScenario.node[374].appl 	generatedWSMs 	0
scalar MyScenario.node[374].appl 	receivedWSMs 	0
scalar MyScenario.node[374].appl 	generatedBSMs 	0
scalar MyScenario.node[374].appl 	receivedBSMs 	0
scalar MyScenario.node[374].appl 	generatedWSAs 	0
scalar MyScenario.node[374].appl 	receivedWSAs 	0
scalar MyScenario.node[374].nic.phy80211p 	busyTime 	0
scalar MyScenario.node[374].nic.mac1609_4 	ReceivedUnicastPackets 	0
scalar MyScenario.node[374].nic.mac1609_4 	ReceivedBroadcasts 	0
scalar MyScenario.node[374].nic.mac1609_4 	SentPackets 	0
scalar MyScenario.node[374].nic.mac1609_4 	SNIRLostPackets 	0
scalar MyScenario.node[374].nic.mac1609_4 	RXTXLostPackets 	0
scalar MyScenario.node[374].nic.mac1609_4 	TotalLostPackets 	0
scalar MyScenario.node[374].nic.mac1609_4 	DroppedPacketsInMac 	0
scalar MyScenario.node[374].nic.mac1609_4 	TooLittleTime 	0
scalar MyScenario.node[374].nic.mac1609_4 	TimesIntoBackoff 	0
scalar MyScenario.node[374].nic.mac1609_4 	SlotsBackoff 	0
scalar MyScenario.node[374].nic.mac1609_4 	NumInternalContention 	0
scalar MyScenario.node[374].nic.mac1609_4 	totalBusyTime 	0
scalar MyScenario.node[374].veinsmobility 	startTime 	7
scalar MyScenario.node[374].veinsmobility 	totalTime 	25
scalar MyScenario.node[374].veinsmobility 	stopTime 	33
scalar MyScenario.node[374].veinsmobility 	minSpeed 	1.4959246858722
scalar MyScenario.node[374].veinsmobility 	maxSpeed 	13.847193255881
scalar MyScenario.node[374].veinsmobility 	totalDistance 	276.30918004866
scalar MyScenario.node[374].veinsmobility 	totalCO2Emission 	83.642168696355
scalar MyScenario.node[130].appl 	generatedWSMs 	0
scalar MyScenario.node[130].appl 	receivedWSMs 	0
scalar MyScenario.node[130].appl 	generatedBSMs 	0
scalar MyScenario.node[130].appl 	receivedBSMs 	0
scalar MyScenario.node[130].appl 	generatedWSAs 	0
scalar MyScenario.node[130].appl 	receivedWSAs 	0
scalar MyScenario.node[130].nic.phy80211p 	busyTime 	0
scalar MyScenario.node[130].nic.mac1609_4 	ReceivedUnicastPackets 	0
scalar MyScenario.node[130].nic.mac1609_4 	ReceivedBroadcasts 	0
scalar MyScenario.node[130].nic.mac1609_4 	SentPackets 	0
scalar MyScenario.node[130].nic.mac1609_4 	SNIRLostPackets 	0
scalar MyScenario.node[130].nic.mac1609_4 	RXTXLostPackets 	0
scalar MyScenario.node[130].nic.mac1609_4 	TotalLostPackets 	0
scalar MyScenario.node[130].nic.mac1609_4 	DroppedPacketsInMac 	0
scalar MyScenario.node[130].nic.mac1609_4 	TooLittleTime 	0
scalar MyScenario.node[130].nic.mac1609_4 	TimesIntoBackoff 	0
scalar MyScenario.node[130].nic.mac1609_4 	SlotsBackoff 	0
scalar MyScenario.node[130].nic.mac1609_4 	NumInternalContention 	0
scalar MyScenario.node[130].nic.mac1609_4 	totalBusyTime 	0
scalar MyScenario.node[130].veinsmobility 	startTime 	1
scalar MyScenario.node[130].veinsmobility 	totalTime 	32
scalar MyScenario.node[130].veinsmobility 	stopTime 	34
scalar MyScenario.node[130].veinsmobility 	minSpeed 	2.5101477212971
scalar MyScenario.node[130].veinsmobility 	maxSpeed 	13.775662330561
scalar MyScenario.node[130].veinsmobility 	totalDistance 	365.21254873493
scalar MyScenario.node[130].veinsmobility 	totalCO2Emission 	105.74252869008
scalar MyScenario.node[149].appl 	generatedWSMs 	0
scalar MyScenario.node[149].appl 	receivedWSMs 	0
scalar MyScenario.node[149].appl 	generatedBSMs 	0
scalar MyScenario.node[149].appl 	receivedBSMs 	0
scalar MyScenario.node[149].appl 	generatedWSAs 	0
scalar MyScenario.node[149].appl 	receivedWSAs 	0
scalar MyScenario.node[149].nic.phy80211p 	busyTime 	0.00017575757575758
scalar MyScenario.node[149].nic.mac1609_4 	ReceivedUnicastPackets 	0
scalar MyScenario.node[149].nic.mac1609_4 	ReceivedBroadcasts 	0
scalar MyScenario.node[149].nic.mac1609_4 	SentPackets 	0
scalar MyScenario.node[149].nic.mac1609_4 	SNIRLostPackets 	25
scalar MyScenario.node[149].nic.mac1609_4 	RXTXLostPackets 	0
scalar MyScenario.node[149].nic.mac1609_4 	TotalLostPackets 	25
scalar MyScenario.node[149].nic.mac1609_4 	DroppedPacketsInMac 	0
scalar MyScenario.node[149].nic.mac1609_4 	TooLittleTime 	0
scalar MyScenario.node[149].nic.mac1609_4 	TimesIntoBackoff 	0
scalar MyScenario.node[149].nic.mac1609_4 	SlotsBackoff 	0
scalar MyScenario.node[149].nic.mac1609_4 	NumInternalContention 	0
scalar MyScenario.node[149].nic.mac1609_4 	totalBusyTime 	0.00116
scalar MyScenario.node[149].veinsmobility 	startTime 	1
scalar MyScenario.node[149].veinsmobility 	totalTime 	32
scalar MyScenario.node[149].veinsmobility 	stopTime 	34
scalar MyScenario.node[149].veinsmobility 	minSpeed 	1.4218414101051
scalar MyScenario.node[149].veinsmobility 	maxSpeed 	13.831001758203
scalar MyScenario.node[149].veinsmobility 	totalDistance 	364.93400586714
scalar MyScenario.node[149].veinsmobility 	totalCO2Emission 	103.14030628631
scalar MyScenario.node[121].appl 	generatedWSMs 	0
scalar MyScenario.node[121].appl 	receivedWSMs 	0
scalar MyScenario.node[121].appl 	generatedBSMs 	0
scalar MyScenario.node[121].appl 	receivedBSMs 	0
scalar MyScenario.node[121].appl 	generatedWSAs 	0
scalar MyScenario.node[121].appl 	receivedWSAs 	0
scalar MyScenario.node[121].nic.phy80211p 	busyTime 	8.1882352941176e-05
scalar MyScenario.node[121].nic.mac1609_4 	ReceivedUnicastPackets 	0
scalar MyScenario.node[121].nic.mac1609_4 	ReceivedBroadcasts 	0
scalar MyScenario.node[121].nic.mac1609_4 	SentPackets 	0
scalar MyScenario.node[121].nic.mac1609_4 	SNIRLostPackets 	12
scalar MyScenario.node[121].nic.mac1609_4 	RXTXLostPackets 	0
scalar MyScenario.node[121].nic.mac1609_4 	TotalLostPackets 	12
scalar MyScenario.node[121].nic.mac1609_4 	DroppedPacketsInMac 	0
scalar MyScenario.node[121].nic.mac1609_4 	TooLittleTime 	0
scalar MyScenario.node[121].nic.mac1609_4 	TimesIntoBackoff 	0
scalar MyScenario.node[121].nic.mac1609_4 	SlotsBackoff 	0
scalar MyScenario.node[121].nic.mac1609_4 	NumInternalContention 	0
scalar MyScenario.node[121].nic.mac1609_4 	totalBusyTime 	0.000696
scalar MyScenario.node[121].veinsmobility 	startTime 	1
scalar MyScenario.node[121].veinsmobility 	totalTime 	33
scalar MyScenario.node[121].veinsmobility 	stopTime 	35
scalar MyScenario.node[121].veinsmobility 	minSpeed 	1.7628014306538
scalar MyScenario.node[121].veinsmobility 	maxSpeed 	13.840603422739
scalar MyScenario.node[121].veinsmobility 	totalDistance 	367.06047431912
scalar MyScenario.node[121].veinsmobility 	totalCO2Emission 	117.50203822632
scalar MyScenario.node[99].appl 	generatedWSMs 	0
scalar MyScenario.node[99].appl 	receivedWSMs 	0
scalar MyScenario.node[99].appl 	generatedBSMs 	0
scalar MyScenario.node[99].appl 	receivedBSMs 	0
scalar MyScenario.node[99].appl 	generatedWSAs 	0
scalar MyScenario.node[99].appl 	receivedWSAs 	0
scalar MyScenario.node[99].nic.phy80211p 	busyTime 	0
scalar MyScenario.node[99].nic.mac1609_4 	ReceivedUnicastPackets 	0
scalar MyScenario.node[99].nic.mac1609_4 	ReceivedBroadcasts 	0
scalar MyScenario.node[99].nic.mac1609_4 	SentPackets 	0
scalar MyScenario.node[99].nic.mac1609_4 	SNIRLostPackets 	0
scalar MyScenario.node[99].nic.mac1609_4 	RXTXLostPackets 	0
scalar MyScenario.node[99].nic.mac1609_4 	TotalLostPackets 	0
scalar MyScenario.node[99].nic.mac1609_4 	DroppedPacketsInMac 	0
scalar MyScenario.node[99].nic.mac1609_4 	TooLittleTime 	0
scalar MyScenario.node[99].nic.mac1609_4 	TimesIntoBackoff 	0
scalar MyScenario.node[99].nic.mac1609_4 	SlotsBackoff 	0
scalar MyScenario.node[99].nic.mac1609_4 	NumInternalContention 	0
scalar MyScenario.node[99].nic.mac1609_4 	totalBusyTime 	0
scalar MyScenario.node[99].veinsmobility 	startTime 	1
scalar MyScenario.node[99].veinsmobility 	totalTime 	34
scalar MyScenario.node[99].veinsmobility 	stopTime 	36
scalar MyScenario.node[99].veinsmobility 	minSpeed 	2.4657600561855
scalar MyScenario.node[99].veinsmobility 	maxSpeed 	13.877774741105
scalar MyScenario.node[99].veinsmobility 	totalDistance 	385.04448371379
scalar MyScenario.node[99].veinsmobility 	totalCO2Emission 	109.25801201588
scalar MyScenario.node[104].appl 	generatedWSMs 	1
scalar MyScenario.node[104].appl 	receivedWSMs 	4
scalar MyScenario.node[104].appl 	generatedBSMs 	0
scalar MyScenario.node[104].appl 	receivedBSMs 	0
scalar MyScenario.node[104].appl 	generatedWSAs 	0
scalar MyScenario.node[104].appl 	receivedWSAs 	0
scalar MyScenario.node[104].nic.phy80211p 	busyTime 	0.00023827027027027
scalar MyScenario.node[104].nic.mac1609_4 	ReceivedUnicastPackets 	0
scalar MyScenario.node[104].nic.mac1609_4 	ReceivedBroadcasts 	4
scalar MyScenario.node[104].nic.mac1609_4 	SentPackets 	1
scalar MyScenario.node[104].nic.mac1609_4 	SNIRLostPackets 	34
scalar MyScenario.node[104].nic.mac1609_4 	RXTXLostPackets 	9
scalar MyScenario.node[104].nic.mac1609_4 	TotalLostPackets 	43
scalar MyScenario.node[104].nic.mac1609_4 	DroppedPacketsInMac 	0
scalar MyScenario.node[104].nic.mac1609_4 	TooLittleTime 	0
scalar MyScenario.node[104].nic.mac1609_4 	TimesIntoBackoff 	1
scalar MyScenario.node[104].nic.mac1609_4 	SlotsBackoff 	1
scalar MyScenario.node[104].nic.mac1609_4 	NumInternalContention 	0
scalar MyScenario.node[104].nic.mac1609_4 	totalBusyTime 	0.002785190368
scalar MyScenario.node[104].veinsmobility 	startTime 	1
scalar MyScenario.node[104].veinsmobility 	totalTime 	36
scalar MyScenario.node[104].veinsmobility 	stopTime 	38
scalar MyScenario.node[104].veinsmobility 	minSpeed 	0.75306125495085
scalar MyScenario.node[104].veinsmobility 	maxSpeed 	13.88538246532
scalar MyScenario.node[104].veinsmobility 	totalDistance 	375.6145273981
scalar MyScenario.node[104].veinsmobility 	totalCO2Emission 	119.71766152922
scalar MyScenario.node[349].appl 	generatedWSMs 	0
scalar MyScenario.node[349].appl 	receivedWSMs 	0
scalar MyScenario.node[349].appl 	generatedBSMs 	0
scalar MyScenario.node[349].appl 	receivedBSMs 	0
scalar MyScenario.node[349].appl 	generatedWSAs 	0
scalar MyScenario.node[349].appl 	receivedWSAs 	0
scalar MyScenario.node[349].nic.phy80211p 	busyTime 	0.000116
scalar MyScenario.node[349].nic.mac1609_4 	ReceivedUnicastPackets 	0
scalar MyScenario.node[349].nic.mac1609_4 	ReceivedBroadcasts 	0
scalar MyScenario.node[349].nic.mac1609_4 	SentPackets 	0
scalar MyScenario.node[349].nic.mac1609_4 	SNIRLostPackets 	17
scalar MyScenario.node[349].nic.mac1609_4 	RXTXLostPackets 	0
scalar MyScenario.node[349].nic.mac1609_4 	TotalLostPackets 	17
scalar MyScenario.node[349].nic.mac1609_4 	DroppedPacketsInMac 	0
scalar MyScenario.node[349].nic.mac1609_4 	TooLittleTime 	0
scalar MyScenario.node[349].nic.mac1609_4 	TimesIntoBackoff 	0
scalar MyScenario.node[349].nic.mac1609_4 	SlotsBackoff 	0
scalar MyScenario.node[349].nic.mac1609_4 	NumInternalContention 	0
scalar MyScenario.node[349].nic.mac1609_4 	totalBusyTime 	0.000696
scalar MyScenario.node[349].veinsmobility 	startTime 	4
scalar MyScenario.node[349].veinsmobility 	totalTime 	33
scalar MyScenario.node[349].veinsmobility 	stopTime 	38
scalar MyScenario.node[349].veinsmobility 	minSpeed 	2.4523507286096
scalar MyScenario.node[349].veinsmobility 	maxSpeed 	13.773779754597
scalar MyScenario.node[349].veinsmobility 	totalDistance 	377.38701245601
scalar MyScenario.node[349].veinsmobility 	totalCO2Emission 	105.74945449676
scalar MyScenario.node[133].appl 	generatedWSMs 	0
scalar MyScenario.node[133].appl 	receivedWSMs 	0
scalar MyScenario.node[133].appl 	generatedBSMs 	0
scalar MyScenario.node[133].appl 	receivedBSMs 	0
scalar MyScenario.node[133].appl 	generatedWSAs 	0
scalar MyScenario.node[133].appl 	receivedWSAs 	0
scalar MyScenario.node[133].nic.phy80211p 	busyTime 	4.2736842105263e-05
scalar MyScenario.node[133].nic.mac1609_4 	ReceivedUnicastPackets 	0
scalar MyScenario.node[133].nic.mac1609_4 	ReceivedBroadcasts 	0
scalar MyScenario.node[133].nic.mac1609_4 	SentPackets 	0
scalar MyScenario.node[133].nic.mac1609_4 	SNIRLostPackets 	7
scalar MyScenario.node[133].nic.mac1609_4 	RXTXLostPackets 	0
scalar MyScenario.node[133].nic.mac1609_4 	TotalLostPackets 	7
scalar MyScenario.node[133].nic.mac1609_4 	DroppedPacketsInMac 	0
scalar MyScenario.node[133].nic.mac1609_4 	TooLittleTime 	0
scalar MyScenario.node[133].nic.mac1609_4 	TimesIntoBackoff 	0
scalar MyScenario.node[133].nic.mac1609_4 	SlotsBackoff 	0
scalar MyScenario.node[133].nic.mac1609_4 	NumInternalContention 	0
scalar MyScenario.node[133].nic.mac1609_4 	totalBusyTime 	0.000928
scalar MyScenario.node[133].veinsmobility 	startTime 	1
scalar MyScenario.node[133].veinsmobility 	totalTime 	37
scalar MyScenario.node[133].veinsmobility 	stopTime 	39
scalar MyScenario.node[133].veinsmobility 	minSpeed 	2.1454915619222
scalar MyScenario.node[133].veinsmobility 	maxSpeed 	13.893618005025
scalar MyScenario.node[133].veinsmobility 	totalDistance 	367.87638922638
scalar MyScenario.node[133].veinsmobility 	totalCO2Emission 	125.46506295562
scalar MyScenario.node[112].appl 	generatedWSMs 	0
scalar MyScenario.node[112].appl 	receivedWSMs 	0
scalar MyScenario.node[112].appl 	generatedBSMs 	0
scalar MyScenario.node[112].appl 	receivedBSMs 	0
scalar MyScenario.node[112].appl 	generatedWSAs 	0
scalar MyScenario.node[112].appl 	receivedWSAs 	0
scalar MyScenario.node[112].nic.phy80211p 	busyTime 	0
scalar MyScenario.node[112].nic.mac1609_4 	ReceivedUnicastPackets 	0
scalar MyScenario.node[112].nic.mac1609_4 	ReceivedBroadcasts 	0
scalar MyScenario.node[112].nic.mac1609_4 	SentPackets 	0
scalar MyScenario.node[112].nic.mac1609_4 	SNIRLostPackets 	0
scalar MyScenario.node[112].nic.mac1609_4 	RXTXLostPackets 	0
scalar MyScenario.node[112].nic.mac1609_4 	TotalLostPackets 	0
scalar MyScenario.node[112].nic.mac1609_4 	DroppedPacketsInMac 	0
scalar MyScenario.node[112].nic.mac1609_4 	TooLittleTime 	0
scalar MyScenario.node[112].nic.mac1609_4 	TimesIntoBackoff 	0
scalar MyScenario.node[112].nic.mac1609_4 	SlotsBackoff 	0
scalar MyScenario.node[112].nic.mac1609_4 	NumInternalContention 	0
scalar MyScenario.node[112].nic.mac1609_4 	totalBusyTime 	0
scalar MyScenario.node[112].veinsmobility 	startTime 	1
scalar MyScenario.node[112].veinsmobility 	totalTime 	37
scalar MyScenario.node[112].veinsmobility 	stopTime 	39
scalar MyScenario.node[112].veinsmobility 	minSpeed 	0.55973718059636
scalar MyScenario.node[112].veinsmobility 	maxSpeed 	13.857269552094
scalar MyScenario.node[112].veinsmobility 	totalDistance 	373.37840575807
scalar MyScenario.node[112].veinsmobility 	totalCO2Emission 	114.42414594008
scalar MyScenario.node[352].appl 	generatedWSMs 	0
scalar MyScenario.node[352].appl 	receivedWSMs 	0
scalar MyScenario.node[352].appl 	generatedBSMs 	0
scalar MyScenario.node[352].appl 	receivedBSMs 	0
scalar MyScenario.node[352].appl 	generatedWSAs 	0
scalar MyScenario.node[352].appl 	receivedWSAs 	0
scalar MyScenario.node[352].nic.phy80211p 	busyTime 	0
scalar MyScenario.node[352].nic.mac1609_4 	ReceivedUnicastPackets 	0
scalar MyScenario.node[352].nic.mac1609_4 	ReceivedBroadcasts 	0
scalar MyScenario.node[352].nic.mac1609_4 	SentPackets 	0
scalar MyScenario.node[352].nic.mac1609_4 	SNIRLostPackets 	0
scalar MyScenario.node[352].nic.mac1609_4 	RXTXLostPackets 	0
scalar MyScenario.node[352].nic.mac1609_4 	TotalLostPackets 	0
scalar MyScenario.node[352].nic.mac1609_4 	DroppedPacketsInMac 	0
scalar MyScenario.node[352].nic.mac1609_4 	TooLittleTime 	0
scalar MyScenario.node[352].nic.mac1609_4 	TimesIntoBackoff 	0
scalar MyScenario.node[352].nic.mac1609_4 	SlotsBackoff 	0
scalar MyScenario.node[352].nic.mac1609_4 	NumInternalContention 	0
scalar MyScenario.node[352].nic.mac1609_4 	totalBusyTime 	0
scalar MyScenario.node[352].veinsmobility 	startTime 	4
scalar MyScenario.node[352].veinsmobility 	totalTime 	36
scalar MyScenario.node[352].veinsmobility 	stopTime 	41
scalar MyScenario.node[352].veinsmobility 	minSpeed 	1.096959472988
scalar MyScenario.node[352].veinsmobility 	maxSpeed 	13.835401968751
scalar MyScenario.node[352].veinsmobility 	totalDistance 	366.42125204795
scalar MyScenario.node[352].veinsmobility 	totalCO2Emission 	128.18802765063
scalar MyScenario.node[356].appl 	generatedWSMs 	0
scalar MyScenario.node[356].appl 	receivedWSMs 	0
scalar MyScenario.node[356].appl 	generatedBSMs 	0
scalar MyScenario.node[356].appl 	receivedBSMs 	0
scalar MyScenario.node[356].appl 	generatedWSAs 	0
scalar MyScenario.node[356].appl 	receivedWSAs 	0
scalar MyScenario.node[356].nic.phy80211p 	busyTime 	3.1351351351351e-05
scalar MyScenario.node[356].nic.mac1609_4 	ReceivedUnicastPackets 	0
scalar MyScenario.node[356].nic.mac1609_4 	ReceivedBroadcasts 	0
scalar MyScenario.node[356].nic.mac1609_4 	SentPackets 	0
scalar MyScenario.node[356].nic.mac1609_4 	SNIRLostPackets 	5
scalar MyScenario.node[356].nic.mac1609_4 	RXTXLostPackets 	0
scalar MyScenario.node[356].nic.mac1609_4 	TotalLostPackets 	5
scalar MyScenario.node[356].nic.mac1609_4 	DroppedPacketsInMac 	0
scalar MyScenario.node[356].nic.mac1609_4 	TooLittleTime 	0
scalar MyScenario.node[356].nic.mac1609_4 	TimesIntoBackoff 	0
scalar MyScenario.node[356].nic.mac1609_4 	SlotsBackoff 	0
scalar MyScenario.node[356].nic.mac1609_4 	NumInternalContention 	0
scalar MyScenario.node[356].nic.mac1609_4 	totalBusyTime 	0.000464
scalar MyScenario.node[356].veinsmobility 	startTime 	4
scalar MyScenario.node[356].veinsmobility 	totalTime 	36
scalar MyScenario.node[356].veinsmobility 	stopTime 	41
scalar MyScenario.node[356].veinsmobility 	minSpeed 	0.0010417514450986
scalar MyScenario.node[356].veinsmobility 	maxSpeed 	13.788179152459
scalar MyScenario.node[356].veinsmobility 	totalDistance 	277.42934115549
scalar MyScenario.node[356].veinsmobility 	totalCO2Emission 	98.782844616448
scalar MyScenario.node[238].appl 	generatedWSMs 	1
scalar MyScenario.node[238].appl 	receivedWSMs 	4
scalar MyScenario.node[238].appl 	generatedBSMs 	0
scalar MyScenario.node[238].appl 	receivedBSMs 	0
scalar MyScenario.node[238].appl 	generatedWSAs 	0
scalar MyScenario.node[238].appl 	receivedWSAs 	0
scalar MyScenario.node[238].nic.phy80211p 	busyTime 	0.00019239024390244
scalar MyScenario.node[238].nic.mac1609_4 	ReceivedUnicastPackets 	0
scalar MyScenario.node[238].nic.mac1609_4 	ReceivedBroadcasts 	4
scalar MyScenario.node[238].nic.mac1609_4 	SentPackets 	1
scalar MyScenario.node[238].nic.mac1609_4 	SNIRLostPackets 	30
scalar MyScenario.node[238].nic.mac1609_4 	RXTXLostPackets 	19
scalar MyScenario.node[238].nic.mac1609_4 	TotalLostPackets 	49
scalar MyScenario.node[238].nic.mac1609_4 	DroppedPacketsInMac 	0
scalar MyScenario.node[238].nic.mac1609_4 	TooLittleTime 	0
scalar MyScenario.node[238].nic.mac1609_4 	TimesIntoBackoff 	1
scalar MyScenario.node[238].nic.mac1609_4 	SlotsBackoff 	3
scalar MyScenario.node[238].nic.mac1609_4 	NumInternalContention 	0
scalar MyScenario.node[238].nic.mac1609_4 	totalBusyTime 	0.003945118273
scalar MyScenario.node[238].veinsmobility 	startTime 	1
scalar MyScenario.node[238].veinsmobility 	totalTime 	40
scalar MyScenario.node[238].veinsmobility 	stopTime 	42
scalar MyScenario.node[238].veinsmobility 	minSpeed 	2.4689014415722
scalar MyScenario.node[238].veinsmobility 	maxSpeed 	13.850188936642
scalar MyScenario.node[238].veinsmobility 	totalDistance 	467.75469681912
scalar MyScenario.node[238].veinsmobility 	totalCO2Emission 	122.04840495624
scalar MyScenario.node[322].appl 	generatedWSMs 	1
scalar MyScenario.node[322].appl 	receivedWSMs 	1
scalar MyScenario.node[322].appl 	generatedBSMs 	0
scalar MyScenario.node[322].appl 	receivedBSMs 	0
scalar MyScenario.node[322].appl 	generatedWSAs 	0
scalar MyScenario.node[322].appl 	receivedWSAs 	0
scalar MyScenario.node[322].nic.phy80211p 	busyTime 	0.00015263157894737
scalar MyScenario.node[322].nic.mac1609_4 	ReceivedUnicastPackets 	0
scalar MyScenario.node[322].nic.mac1609_4 	ReceivedBroadcasts 	1
scalar MyScenario.node[322].nic.mac1609_4 	SentPackets 	1
scalar MyScenario.node[322].nic.mac1609_4 	SNIRLostPackets 	24
scalar MyScenario.node[322].nic.mac1609_4 	RXTXLostPackets 	10
scalar MyScenario.node[322].nic.mac1609_4 	TotalLostPackets 	34
scalar MyScenario.node[322].nic.mac1609_4 	DroppedPacketsInMac 	0
scalar MyScenario.node[322].nic.mac1609_4 	TooLittleTime 	0
scalar MyScenario.node[322].nic.mac1609_4 	TimesIntoBackoff 	1
scalar MyScenario.node[322].nic.mac1609_4 	SlotsBackoff 	2
scalar MyScenario.node[322].nic.mac1609_4 	NumInternalContention 	0
scalar MyScenario.node[322].nic.mac1609_4 	totalBusyTime 	0.001625247681
scalar MyScenario.node[322].veinsmobility 	startTime 	4
scalar MyScenario.node[322].veinsmobility 	totalTime 	37
scalar MyScenario.node[322].veinsmobility 	stopTime 	42
scalar MyScenario.node[322].veinsmobility 	minSpeed 	1.1763132352099e-08
scalar MyScenario.node[322].veinsmobility 	maxSpeed 	13.881402978231
scalar MyScenario.node[322].veinsmobility 	totalDistance 	268.47673562798
scalar MyScenario.node[322].veinsmobility 	totalCO2Emission 	105.47538605948
scalar MyScenario.node[372].appl 	generatedWSMs 	0
scalar MyScenario.node[372].appl 	receivedWSMs 	0
scalar MyScenario.node[372].appl 	generatedBSMs 	0
scalar MyScenario.node[372].appl 	receivedBSMs 	0
scalar MyScenario.node[372].appl 	generatedWSAs 	0
scalar MyScenario.node[372].appl 	receivedWSAs 	0
scalar MyScenario.node[372].nic.phy80211p 	busyTime 	0.00012594285714286
scalar MyScenario.node[372].nic.mac1609_4 	ReceivedUnicastPackets 	0
scalar MyScenario.node[372].nic.mac1609_4 	ReceivedBroadcasts 	0
scalar MyScenario.node[372].nic.mac1609_4 	SentPackets 	0
scalar MyScenario.node[372].nic.mac1609_4 	SNIRLostPackets 	19
scalar MyScenario.node[372].nic.mac1609_4 	RXTXLostPackets 	0
scalar MyScenario.node[372].nic.mac1609_4 	TotalLostPackets 	19
scalar MyScenario.node[372].nic.mac1609_4 	DroppedPacketsInMac 	0
scalar MyScenario.node[372].nic.mac1609_4 	TooLittleTime 	0
scalar MyScenario.node[372].nic.mac1609_4 	TimesIntoBackoff 	0
scalar MyScenario.node[372].nic.mac1609_4 	SlotsBackoff 	0
scalar MyScenario.node[372].nic.mac1609_4 	NumInternalContention 	0
scalar MyScenario.node[372].nic.mac1609_4 	totalBusyTime 	0.000928
scalar MyScenario.node[372].veinsmobility 	startTime 	7
scalar MyScenario.node[372].veinsmobility 	totalTime 	34
scalar MyScenario.node[372].veinsmobility 	stopTime 	42
scalar MyScenario.node[372].veinsmobility 	minSpeed 	1.6781161044026
scalar MyScenario.node[372].veinsmobility 	maxSpeed 	13.728004261875
scalar MyScenario.node[372].veinsmobility 	totalDistance 	371.87773841411
scalar MyScenario.node[372].veinsmobility 	totalCO2Emission 	108.7726817996
scalar MyScenario.node[129].appl 	generatedWSMs 	0
scalar MyScenario.node[129].appl 	receivedWSMs 	0
scalar MyScenario.node[129].appl 	generatedBSMs 	0
scalar MyScenario.node[129].appl 	receivedBSMs 	0
scalar MyScenario.node[129].appl 	generatedWSAs 	0
scalar MyScenario.node[129].appl 	receivedWSAs 	0
scalar MyScenario.node[129].nic.phy80211p 	busyTime 	6.790243902439e-05
scalar MyScenario.node[129].nic.mac1609_4 	ReceivedUnicastPackets 	0
scalar MyScenario.node[129].nic.mac1609_4 	ReceivedBroadcasts 	0
scalar MyScenario.node[129].nic.mac1609_4 	SentPackets 	0
scalar MyScenario.node[129].nic.mac1609_4 	SNIRLostPackets 	12
scalar MyScenario.node[129].nic.mac1609_4 	RXTXLostPackets 	0
scalar MyScenario.node[129].nic.mac1609_4 	TotalLostPackets 	12
scalar MyScenario.node[129].nic.mac1609_4 	DroppedPacketsInMac 	0
scalar MyScenario.node[129].nic.mac1609_4 	TooLittleTime 	0
scalar MyScenario.node[129].nic.mac1609_4 	TimesIntoBackoff 	0
scalar MyScenario.node[129].nic.mac1609_4 	SlotsBackoff 	0
scalar MyScenario.node[129].nic.mac1609_4 	NumInternalContention 	0
scalar MyScenario.node[129].nic.mac1609_4 	totalBusyTime 	0.000464
scalar MyScenario.node[129].veinsmobility 	startTime 	1
scalar MyScenario.node[129].veinsmobility 	totalTime 	40
scalar MyScenario.node[129].veinsmobility 	stopTime 	42
scalar MyScenario.node[129].veinsmobility 	minSpeed 	1.3600576015422
scalar MyScenario.node[129].veinsmobility 	maxSpeed 	13.895151971304
scalar MyScenario.node[129].veinsmobility 	totalDistance 	464.32418705654
scalar MyScenario.node[129].veinsmobility 	totalCO2Emission 	123.15106355271
scalar MyScenario.node[74].appl 	generatedWSMs 	1
scalar MyScenario.node[74].appl 	receivedWSMs 	11
scalar MyScenario.node[74].appl 	generatedBSMs 	0
scalar MyScenario.node[74].appl 	receivedBSMs 	0
scalar MyScenario.node[74].appl 	generatedWSAs 	0
scalar MyScenario.node[74].appl 	receivedWSAs 	0
scalar MyScenario.node[74].nic.phy80211p 	busyTime 	0.00019239024390244
scalar MyScenario.node[74].nic.mac1609_4 	ReceivedUnicastPackets 	0
scalar MyScenario.node[74].nic.mac1609_4 	ReceivedBroadcasts 	11
scalar MyScenario.node[74].nic.mac1609_4 	SentPackets 	1
scalar MyScenario.node[74].nic.mac1609_4 	SNIRLostPackets 	23
scalar MyScenario.node[74].nic.mac1609_4 	RXTXLostPackets 	24
scalar MyScenario.node[74].nic.mac1609_4 	TotalLostPackets 	47
scalar MyScenario.node[74].nic.mac1609_4 	DroppedPacketsInMac 	0
scalar MyScenario.node[74].nic.mac1609_4 	TooLittleTime 	0
scalar MyScenario.node[74].nic.mac1609_4 	TimesIntoBackoff 	1
scalar MyScenario.node[74].nic.mac1609_4 	SlotsBackoff 	3
scalar MyScenario.node[74].nic.mac1609_4 	NumInternalContention 	0
scalar MyScenario.node[74].nic.mac1609_4 	totalBusyTime 	0.003713123051
scalar MyScenario.node[74].veinsmobility 	startTime 	1
scalar MyScenario.node[74].veinsmobility 	totalTime 	40
scalar MyScenario.node[74].veinsmobility 	stopTime 	42
scalar MyScenario.node[74].veinsmobility 	minSpeed 	1.8159769729013
scalar MyScenario.node[74].veinsmobility 	maxSpeed 	13.880970143643
scalar MyScenario.node[74].veinsmobility 	totalDistance 	470.98609254661
scalar MyScenario.node[74].veinsmobility 	totalCO2Emission 	127.18210575513
scalar MyScenario.node[62].appl 	generatedWSMs 	0
scalar MyScenario.node[62].appl 	receivedWSMs 	0
scalar MyScenario.node[62].appl 	generatedBSMs 	0
scalar MyScenario.node[62].appl 	receivedBSMs 	0
scalar MyScenario.node[62].appl 	generatedWSAs 	0
scalar MyScenario.node[62].appl 	receivedWSAs 	0
scalar MyScenario.node[62].nic.phy80211p 	busyTime 	5.5238095238095e-06
scalar MyScenario.node[62].nic.mac1609_4 	ReceivedUnicastPackets 	0
scalar MyScenario.node[62].nic.mac1609_4 	ReceivedBroadcasts 	0
scalar MyScenario.node[62].nic.mac1609_4 	SentPackets 	0
scalar MyScenario.node[62].nic.mac1609_4 	SNIRLostPackets 	1
scalar MyScenario.node[62].nic.mac1609_4 	RXTXLostPackets 	0
scalar MyScenario.node[62].nic.mac1609_4 	TotalLostPackets 	1
scalar MyScenario.node[62].nic.mac1609_4 	DroppedPacketsInMac 	0
scalar MyScenario.node[62].nic.mac1609_4 	TooLittleTime 	0
scalar MyScenario.node[62].nic.mac1609_4 	TimesIntoBackoff 	0
scalar MyScenario.node[62].nic.mac1609_4 	SlotsBackoff 	0
scalar MyScenario.node[62].nic.mac1609_4 	NumInternalContention 	0
scalar MyScenario.node[62].nic.mac1609_4 	totalBusyTime 	0.000232
scalar MyScenario.node[62].veinsmobility 	startTime 	1
scalar MyScenario.node[62].veinsmobility 	totalTime 	41
scalar MyScenario.node[62].veinsmobility 	stopTime 	43
scalar MyScenario.node[62].veinsmobility 	minSpeed 	1.7995301856659
scalar MyScenario.node[62].veinsmobility 	maxSpeed 	13.847822230938
scalar MyScenario.node[62].veinsmobility 	totalDistance 	466.95805376532
scalar MyScenario.node[62].veinsmobility 	totalCO2Emission 	125.70106431564
scalar MyScenario.node[28].appl 	generatedWSMs 	1
scalar MyScenario.node[28].appl 	receivedWSMs 	10
scalar MyScenario.node[28].appl 	generatedBSMs 	0
scalar MyScenario.node[28].appl 	receivedBSMs 	0
scalar MyScenario.node[28].appl 	generatedWSAs 	0
scalar MyScenario.node[28].appl 	receivedWSAs 	0
scalar MyScenario.node[28].nic.phy80211p 	busyTime 	0.00021581395348837
scalar MyScenario.node[28].nic.mac1609_4 	ReceivedUnicastPackets 	0
scalar MyScenario.node[28].nic.mac1609_4 	ReceivedBroadcasts 	10
scalar MyScenario.node[28].nic.mac1609_4 	SentPackets 	1
scalar MyScenario.node[28].nic.mac1609_4 	SNIRLostPackets 	30
scalar MyScenario.node[28].nic.mac1609_4 	RXTXLostPackets 	24
scalar MyScenario.node[28].nic.mac1609_4 	TotalLostPackets 	54
scalar MyScenario.node[28].nic.mac1609_4 	DroppedPacketsInMac 	0
scalar MyScenario.node[28].nic.mac1609_4 	TooLittleTime 	0
scalar MyScenario.node[28].nic.mac1609_4 	TimesIntoBackoff 	1
scalar MyScenario.node[28].nic.mac1609_4 	SlotsBackoff 	1
scalar MyScenario.node[28].nic.mac1609_4 	NumInternalContention 	0
scalar MyScenario.node[28].nic.mac1609_4 	totalBusyTime 	0.003945057142
scalar MyScenario.node[28].veinsmobility 	startTime 	1
scalar MyScenario.node[28].veinsmobility 	totalTime 	42
scalar MyScenario.node[28].veinsmobility 	stopTime 	44
scalar MyScenario.node[28].veinsmobility 	minSpeed 	1.5000986049653
scalar MyScenario.node[28].veinsmobility 	maxSpeed 	13.874787141592
scalar MyScenario.node[28].veinsmobility 	totalDistance 	468.72454962219
scalar MyScenario.node[28].veinsmobility 	totalCO2Emission 	129.06442030685
scalar MyScenario.node[190].appl 	generatedWSMs 	1
scalar MyScenario.node[190].appl 	receivedWSMs 	3
scalar MyScenario.node[190].appl 	generatedBSMs 	0
scalar MyScenario.node[190].appl 	receivedBSMs 	0
scalar MyScenario.node[190].appl 	generatedWSAs 	0
scalar MyScenario.node[190].appl 	receivedWSAs 	0
scalar MyScenario.node[190].nic.phy80211p 	busyTime 	0.00021090909090909
scalar MyScenario.node[190].nic.mac1609_4 	ReceivedUnicastPackets 	0
scalar MyScenario.node[190].nic.mac1609_4 	ReceivedBroadcasts 	3
scalar MyScenario.node[190].nic.mac1609_4 	SentPackets 	1
scalar MyScenario.node[190].nic.mac1609_4 	SNIRLostPackets 	37
scalar MyScenario.node[190].nic.mac1609_4 	RXTXLostPackets 	13
scalar MyScenario.node[190].nic.mac1609_4 	TotalLostPackets 	50
scalar MyScenario.node[190].nic.mac1609_4 	DroppedPacketsInMac 	0
scalar MyScenario.node[190].nic.mac1609_4 	TooLittleTime 	0
scalar MyScenario.node[190].nic.mac1609_4 	TimesIntoBackoff 	1
scalar MyScenario.node[190].nic.mac1609_4 	SlotsBackoff 	0
scalar MyScenario.node[190].nic.mac1609_4 	NumInternalContention 	0
scalar MyScenario.node[190].nic.mac1609_4 	totalBusyTime 	0.003481020208
scalar MyScenario.node[190].veinsmobility 	startTime 	1
scalar MyScenario.node[190].veinsmobility 	totalTime 	43
scalar MyScenario.node[190].veinsmobility 	stopTime 	45
scalar MyScenario.node[190].veinsmobility 	minSpeed 	0.88138682235173
scalar MyScenario.node[190].veinsmobility 	maxSpeed 	13.877206898597
scalar MyScenario.node[190].veinsmobility 	totalDistance 	462.16022102965
scalar MyScenario.node[190].veinsmobility 	totalCO2Emission 	141.62910919261
scalar MyScenario.node[142].appl 	generatedWSMs 	0
scalar MyScenario.node[142].appl 	receivedWSMs 	0
scalar MyScenario.node[142].appl 	generatedBSMs 	0
scalar MyScenario.node[142].appl 	receivedBSMs 	0
scalar MyScenario.node[142].appl 	generatedWSAs 	0
scalar MyScenario.node[142].appl 	receivedWSAs 	0
scalar MyScenario.node[142].nic.phy80211p 	busyTime 	1.5466666666667e-05
scalar MyScenario.node[142].nic.mac1609_4 	ReceivedUnicastPackets 	0
scalar MyScenario.node[142].nic.mac1609_4 	ReceivedBroadcasts 	0
scalar MyScenario.node[142].nic.mac1609_4 	SentPackets 	0
scalar MyScenario.node[142].nic.mac1609_4 	SNIRLostPackets 	3
scalar MyScenario.node[142].nic.mac1609_4 	RXTXLostPackets 	0
scalar MyScenario.node[142].nic.mac1609_4 	TotalLostPackets 	3
scalar MyScenario.node[142].nic.mac1609_4 	DroppedPacketsInMac 	0
scalar MyScenario.node[142].nic.mac1609_4 	TooLittleTime 	0
scalar MyScenario.node[142].nic.mac1609_4 	TimesIntoBackoff 	0
scalar MyScenario.node[142].nic.mac1609_4 	SlotsBackoff 	0
scalar MyScenario.node[142].nic.mac1609_4 	NumInternalContention 	0
scalar MyScenario.node[142].nic.mac1609_4 	totalBusyTime 	0.000232
scalar MyScenario.node[142].veinsmobility 	startTime 	1
scalar MyScenario.node[142].veinsmobility 	totalTime 	44
scalar MyScenario.node[142].veinsmobility 	stopTime 	46
scalar MyScenario.node[142].veinsmobility 	minSpeed 	2.1482332664542
scalar MyScenario.node[142].veinsmobility 	maxSpeed 	13.819107508473
scalar MyScenario.node[142].veinsmobility 	totalDistance 	468.23044936839
scalar MyScenario.node[142].veinsmobility 	totalCO2Emission 	148.17469404028
scalar MyScenario.node[277].appl 	generatedWSMs 	1
scalar MyScenario.node[277].appl 	receivedWSMs 	13
scalar MyScenario.node[277].appl 	generatedBSMs 	0
scalar MyScenario.node[277].appl 	receivedBSMs 	0
scalar MyScenario.node[277].appl 	generatedWSAs 	0
scalar MyScenario.node[277].appl 	receivedWSAs 	0
scalar MyScenario.node[277].nic.phy80211p 	busyTime 	0.00024279069767442
scalar MyScenario.node[277].nic.mac1609_4 	ReceivedUnicastPackets 	0
scalar MyScenario.node[277].nic.mac1609_4 	ReceivedBroadcasts 	13
scalar MyScenario.node[277].nic.mac1609_4 	SentPackets 	1
scalar MyScenario.node[277].nic.mac1609_4 	SNIRLostPackets 	32
scalar MyScenario.node[277].nic.mac1609_4 	RXTXLostPackets 	5
scalar MyScenario.node[277].nic.mac1609_4 	TotalLostPackets 	37
scalar MyScenario.node[277].nic.mac1609_4 	DroppedPacketsInMac 	0
scalar MyScenario.node[277].nic.mac1609_4 	TooLittleTime 	0
scalar MyScenario.node[277].nic.mac1609_4 	TimesIntoBackoff 	1
scalar MyScenario.node[277].nic.mac1609_4 	SlotsBackoff 	3
scalar MyScenario.node[277].nic.mac1609_4 	NumInternalContention 	0
scalar MyScenario.node[277].nic.mac1609_4 	totalBusyTime 	0.004873
scalar MyScenario.node[277].veinsmobility 	startTime 	4
scalar MyScenario.node[277].veinsmobility 	totalTime 	42
scalar MyScenario.node[277].veinsmobility 	stopTime 	47
scalar MyScenario.node[277].veinsmobility 	minSpeed 	2.45119334599
scalar MyScenario.node[277].veinsmobility 	maxSpeed 	13.801447559264
scalar MyScenario.node[277].veinsmobility 	totalDistance 	469.06497224043
scalar MyScenario.node[277].veinsmobility 	totalCO2Emission 	138.59505562838
scalar MyScenario.node[315].appl 	generatedWSMs 	0
scalar MyScenario.node[315].appl 	receivedWSMs 	0
scalar MyScenario.node[315].appl 	generatedBSMs 	0
scalar MyScenario.node[315].appl 	receivedBSMs 	0
scalar MyScenario.node[315].appl 	generatedWSAs 	0
scalar MyScenario.node[315].appl 	receivedWSAs 	0
scalar MyScenario.node[315].nic.phy80211p 	busyTime 	0
scalar MyScenario.node[315].nic.mac1609_4 	ReceivedUnicastPackets 	0
scalar MyScenario.node[315].nic.mac1609_4 	ReceivedBroadcasts 	0
scalar MyScenario.node[315].nic.mac1609_4 	SentPackets 	0
scalar MyScenario.node[315].nic.mac1609_4 	SNIRLostPackets 	0
scalar MyScenario.node[315].nic.mac1609_4 	RXTXLostPackets 	0
scalar MyScenario.node[315].nic.mac1609_4 	TotalLostPackets 	0
scalar MyScenario.node[315].nic.mac1609_4 	DroppedPacketsInMac 	0
scalar MyScenario.node[315].nic.mac1609_4 	TooLittleTime 	0
scalar MyScenario.node[315].nic.mac1609_4 	TimesIntoBackoff 	0
scalar MyScenario.node[315].nic.mac1609_4 	SlotsBackoff 	0
scalar MyScenario.node[315].nic.mac1609_4 	NumInternalContention 	0
scalar MyScenario.node[315].nic.mac1609_4 	totalBusyTime 	0
scalar MyScenario.node[315].veinsmobility 	startTime 	4
scalar MyScenario.node[315].veinsmobility 	totalTime 	42
scalar MyScenario.node[315].veinsmobility 	stopTime 	47
scalar MyScenario.node[315].veinsmobility 	minSpeed 	1.7102789666845e-09
scalar MyScenario.node[315].veinsmobility 	maxSpeed 	13.559850660479
scalar MyScenario.node[315].veinsmobility 	totalDistance 	272.29490460607
scalar MyScenario.node[315].veinsmobility 	totalCO2Emission 	108.02534136709
scalar MyScenario.node[137].appl 	generatedWSMs 	0
scalar MyScenario.node[137].appl 	receivedWSMs 	0
scalar MyScenario.node[137].appl 	generatedBSMs 	0
scalar MyScenario.node[137].appl 	receivedBSMs 	0
scalar MyScenario.node[137].appl 	generatedWSAs 	0
scalar MyScenario.node[137].appl 	receivedWSAs 	0
scalar MyScenario.node[137].nic.phy80211p 	busyTime 	9.3787234042553e-05
scalar MyScenario.node[137].nic.mac1609_4 	ReceivedUnicastPackets 	0
scalar MyScenario.node[137].nic.mac1609_4 	ReceivedBroadcasts 	0
scalar MyScenario.node[137].nic.mac1609_4 	SentPackets 	0
scalar MyScenario.node[137].nic.mac1609_4 	SNIRLostPackets 	19
scalar MyScenario.node[137].nic.mac1609_4 	RXTXLostPackets 	0
scalar MyScenario.node[137].nic.mac1609_4 	TotalLostPackets 	19
scalar MyScenario.node[137].nic.mac1609_4 	DroppedPacketsInMac 	0
scalar MyScenario.node[137].nic.mac1609_4 	TooLittleTime 	0
scalar MyScenario.node[137].nic.mac1609_4 	TimesIntoBackoff 	0
scalar MyScenario.node[137].nic.mac1609_4 	SlotsBackoff 	0
scalar MyScenario.node[137].nic.mac1609_4 	NumInternalContention 	0
scalar MyScenario.node[137].nic.mac1609_4 	totalBusyTime 	0.000928
scalar MyScenario.node[137].veinsmobility 	startTime 	1
scalar MyScenario.node[137].veinsmobility 	totalTime 	46
scalar MyScenario.node[137].veinsmobility 	stopTime 	48
scalar MyScenario.node[137].veinsmobility 	minSpeed 	2.5980895578163
scalar MyScenario.node[137].veinsmobility 	maxSpeed 	13.832833615015
scalar MyScenario.node[137].veinsmobility 	totalDistance 	577.12396509348
scalar MyScenario.node[137].veinsmobility 	totalCO2Emission 	129.40276989464
scalar MyScenario.node[299].appl 	generatedWSMs 	1
scalar MyScenario.node[299].appl 	receivedWSMs 	1
scalar MyScenario.node[299].appl 	generatedBSMs 	0
scalar MyScenario.node[299].appl 	receivedBSMs 	0
scalar MyScenario.node[299].appl 	generatedWSAs 	0
scalar MyScenario.node[299].appl 	receivedWSAs 	0
scalar MyScenario.node[299].nic.phy80211p 	busyTime 	0.00010311111111111
scalar MyScenario.node[299].nic.mac1609_4 	ReceivedUnicastPackets 	0
scalar MyScenario.node[299].nic.mac1609_4 	ReceivedBroadcasts 	1
scalar MyScenario.node[299].nic.mac1609_4 	SentPackets 	1
scalar MyScenario.node[299].nic.mac1609_4 	SNIRLostPackets 	19
scalar MyScenario.node[299].nic.mac1609_4 	RXTXLostPackets 	25
scalar MyScenario.node[299].nic.mac1609_4 	TotalLostPackets 	44
scalar MyScenario.node[299].nic.mac1609_4 	DroppedPacketsInMac 	0
scalar MyScenario.node[299].nic.mac1609_4 	TooLittleTime 	0
scalar MyScenario.node[299].nic.mac1609_4 	TimesIntoBackoff 	1
scalar MyScenario.node[299].nic.mac1609_4 	SlotsBackoff 	0
scalar MyScenario.node[299].nic.mac1609_4 	NumInternalContention 	0
scalar MyScenario.node[299].nic.mac1609_4 	totalBusyTime 	0.001161172611
scalar MyScenario.node[299].veinsmobility 	startTime 	4
scalar MyScenario.node[299].veinsmobility 	totalTime 	44
scalar MyScenario.node[299].veinsmobility 	stopTime 	49
scalar MyScenario.node[299].veinsmobility 	minSpeed 	7.1351395563755e-06
scalar MyScenario.node[299].veinsmobility 	maxSpeed 	13.761060359073
scalar MyScenario.node[299].veinsmobility 	totalDistance 	376.13602335675
scalar MyScenario.node[299].veinsmobility 	totalCO2Emission 	122.12679018137
scalar MyScenario.node[16].appl 	generatedWSMs 	0
scalar MyScenario.node[16].appl 	receivedWSMs 	0
scalar MyScenario.node[16].appl 	generatedBSMs 	0
scalar MyScenario.node[16].appl 	receivedBSMs 	0
scalar MyScenario.node[16].appl 	generatedWSAs 	0
scalar MyScenario.node[16].appl 	receivedWSAs 	0
scalar MyScenario.node[16].nic.phy80211p 	busyTime 	0.0001015
scalar MyScenario.node[16].nic.mac1609_4 	ReceivedUnicastPackets 	0
scalar MyScenario.node[16].nic.mac1609_4 	ReceivedBroadcasts 	0
scalar MyScenario.node[16].nic.mac1609_4 	SentPackets 	0
scalar MyScenario.node[16].nic.mac1609_4 	SNIRLostPackets 	21
scalar MyScenario.node[16].nic.mac1609_4 	RXTXLostPackets 	0
scalar MyScenario.node[16].nic.mac1609_4 	TotalLostPackets 	21
scalar MyScenario.node[16].nic.mac1609_4 	DroppedPacketsInMac 	0
scalar MyScenario.node[16].nic.mac1609_4 	TooLittleTime 	0
scalar MyScenario.node[16].nic.mac1609_4 	TimesIntoBackoff 	0
scalar MyScenario.node[16].nic.mac1609_4 	SlotsBackoff 	0
scalar MyScenario.node[16].nic.mac1609_4 	NumInternalContention 	0
scalar MyScenario.node[16].nic.mac1609_4 	totalBusyTime 	0.000232041328
scalar MyScenario.node[16].veinsmobility 	startTime 	1
scalar MyScenario.node[16].veinsmobility 	totalTime 	47
scalar MyScenario.node[16].veinsmobility 	stopTime 	49
scalar MyScenario.node[16].veinsmobility 	minSpeed 	1.5062906660605
scalar MyScenario.node[16].veinsmobility 	maxSpeed 	13.723328007618
scalar MyScenario.node[16].veinsmobility 	totalDistance 	473.02456784995
scalar MyScenario.node[16].veinsmobility 	totalCO2Emission 	156.98602961308
scalar MyScenario.node[123].appl 	generatedWSMs 	1
scalar MyScenario.node[123].appl 	receivedWSMs 	4
scalar MyScenario.node[123].appl 	generatedBSMs 	0
scalar MyScenario.node[123].appl 	receivedBSMs 	0
scalar MyScenario.node[123].appl 	generatedWSAs 	0
scalar MyScenario.node[123].appl 	receivedWSAs 	0
scalar MyScenario.node[123].nic.phy80211p 	busyTime 	0.0002755
scalar MyScenario.node[123].nic.mac1609_4 	ReceivedUnicastPackets 	0
scalar MyScenario.node[123].nic.mac1609_4 	ReceivedBroadcasts 	4
scalar MyScenario.node[123].nic.mac1609_4 	SentPackets 	1
scalar MyScenario.node[123].nic.mac1609_4 	SNIRLostPackets 	53
scalar MyScenario.node[123].nic.mac1609_4 	RXTXLostPackets 	1
scalar MyScenario.node[123].nic.mac1609_4 	TotalLostPackets 	54
scalar MyScenario.node[123].nic.mac1609_4 	DroppedPacketsInMac 	0
scalar MyScenario.node[123].nic.mac1609_4 	TooLittleTime 	0
scalar MyScenario.node[123].nic.mac1609_4 	TimesIntoBackoff 	1
scalar MyScenario.node[123].nic.mac1609_4 	SlotsBackoff 	1
scalar MyScenario.node[123].nic.mac1609_4 	NumInternalContention 	0
scalar MyScenario.node[123].nic.mac1609_4 	totalBusyTime 	0.002785
scalar MyScenario.node[123].veinsmobility 	startTime 	1
scalar MyScenario.node[123].veinsmobility 	totalTime 	47
scalar MyScenario.node[123].veinsmobility 	stopTime 	49
scalar MyScenario.node[123].veinsmobility 	minSpeed 	1.1483470190705
scalar MyScenario.node[123].veinsmobility 	maxSpeed 	13.853756625089
scalar MyScenario.node[123].veinsmobility 	totalDistance 	465.58241019574
scalar MyScenario.node[123].veinsmobility 	totalCO2Emission 	152.58021246579
scalar MyScenario.node[226].appl 	generatedWSMs 	1
scalar MyScenario.node[226].appl 	receivedWSMs 	6
scalar MyScenario.node[226].appl 	generatedBSMs 	0
scalar MyScenario.node[226].appl 	receivedBSMs 	0
scalar MyScenario.node[226].appl 	generatedWSAs 	0
scalar MyScenario.node[226].appl 	receivedWSAs 	0
scalar MyScenario.node[226].nic.phy80211p 	busyTime 	0.00026040816326531
scalar MyScenario.node[226].nic.mac1609_4 	ReceivedUnicastPackets 	0
scalar MyScenario.node[226].nic.mac1609_4 	ReceivedBroadcasts 	6
scalar MyScenario.node[226].nic.mac1609_4 	SentPackets 	1
scalar MyScenario.node[226].nic.mac1609_4 	SNIRLostPackets 	49
scalar MyScenario.node[226].nic.mac1609_4 	RXTXLostPackets 	21
scalar MyScenario.node[226].nic.mac1609_4 	TotalLostPackets 	70
scalar MyScenario.node[226].nic.mac1609_4 	DroppedPacketsInMac 	0
scalar MyScenario.node[226].nic.mac1609_4 	TooLittleTime 	0
scalar MyScenario.node[226].nic.mac1609_4 	TimesIntoBackoff 	1
scalar MyScenario.node[226].nic.mac1609_4 	SlotsBackoff 	3
scalar MyScenario.node[226].nic.mac1609_4 	NumInternalContention 	0
scalar MyScenario.node[226].nic.mac1609_4 	totalBusyTime 	0.003945077626
scalar MyScenario.node[226].veinsmobility 	startTime 	1
scalar MyScenario.node[226].veinsmobility 	totalTime 	48
scalar MyScenario.node[226].veinsmobility 	stopTime 	50
scalar MyScenario.node[226].veinsmobility 	minSpeed 	0.0067290451843675
scalar MyScenario.node[226].veinsmobility 	maxSpeed 	13.849475405854
scalar MyScenario.node[226].veinsmobility 	totalDistance 	474.73403676634
scalar MyScenario.node[226].veinsmobility 	totalCO2Emission 	147.14140777756
scalar MyScenario.node[406].appl 	generatedWSMs 	1
scalar MyScenario.node[406].appl 	receivedWSMs 	1
scalar MyScenario.node[406].appl 	generatedBSMs 	0
scalar MyScenario.node[406].appl 	receivedBSMs 	0
scalar MyScenario.node[406].appl 	generatedWSAs 	0
scalar MyScenario.node[406].appl 	receivedWSAs 	0
scalar MyScenario.node[406].nic.phy80211p 	busyTime 	1.2888888888889e-05
scalar MyScenario.node[406].nic.mac1609_4 	ReceivedUnicastPackets 	0
scalar MyScenario.node[406].nic.mac1609_4 	ReceivedBroadcasts 	1
scalar MyScenario.node[406].nic.mac1609_4 	SentPackets 	1
scalar MyScenario.node[406].nic.mac1609_4 	SNIRLostPackets 	1
scalar MyScenario.node[406].nic.mac1609_4 	RXTXLostPackets 	16
scalar MyScenario.node[406].nic.mac1609_4 	TotalLostPackets 	17
scalar MyScenario.node[406].nic.mac1609_4 	DroppedPacketsInMac 	0
scalar MyScenario.node[406].nic.mac1609_4 	TooLittleTime 	0
scalar MyScenario.node[406].nic.mac1609_4 	TimesIntoBackoff 	1
scalar MyScenario.node[406].nic.mac1609_4 	SlotsBackoff 	2
scalar MyScenario.node[406].nic.mac1609_4 	NumInternalContention 	0
scalar MyScenario.node[406].nic.mac1609_4 	totalBusyTime 	0.000697
scalar MyScenario.node[406].veinsmobility 	startTime 	14
scalar MyScenario.node[406].veinsmobility 	totalTime 	35
scalar MyScenario.node[406].veinsmobility 	stopTime 	50
scalar MyScenario.node[406].veinsmobility 	minSpeed 	6.2206461404926
scalar MyScenario.node[406].veinsmobility 	maxSpeed 	13.852453959174
scalar MyScenario.node[406].veinsmobility 	totalDistance 	445.49491288531
scalar MyScenario.node[406].veinsmobility 	totalCO2Emission 	100.90714650091
scalar MyScenario.node[161].appl 	generatedWSMs 	0
scalar MyScenario.node[161].appl 	receivedWSMs 	0
scalar MyScenario.node[161].appl 	generatedBSMs 	0
scalar MyScenario.node[161].appl 	receivedBSMs 	0
scalar MyScenario.node[161].appl 	generatedWSAs 	0
scalar MyScenario.node[161].appl 	receivedWSAs 	0
scalar MyScenario.node[161].nic.phy80211p 	busyTime 	9.744e-05
scalar MyScenario.node[161].nic.mac1609_4 	ReceivedUnicastPackets 	0
scalar MyScenario.node[161].nic.mac1609_4 	ReceivedBroadcasts 	0
scalar MyScenario.node[161].nic.mac1609_4 	SentPackets 	0
scalar MyScenario.node[161].nic.mac1609_4 	SNIRLostPackets 	21
scalar MyScenario.node[161].nic.mac1609_4 	RXTXLostPackets 	0
scalar MyScenario.node[161].nic.mac1609_4 	TotalLostPackets 	21
scalar MyScenario.node[161].nic.mac1609_4 	DroppedPacketsInMac 	0
scalar MyScenario.node[161].nic.mac1609_4 	TooLittleTime 	0
scalar MyScenario.node[161].nic.mac1609_4 	TimesIntoBackoff 	0
scalar MyScenario.node[161].nic.mac1609_4 	SlotsBackoff 	0
scalar MyScenario.node[161].nic.mac1609_4 	NumInternalContention 	0
scalar MyScenario.node[161].nic.mac1609_4 	totalBusyTime 	0.000696
scalar MyScenario.node[161].veinsmobility 	startTime 	1
scalar MyScenario.node[161].veinsmobility 	totalTime 	49
scalar MyScenario.node[161].veinsmobility 	stopTime 	51
scalar MyScenario.node[161].veinsmobility 	minSpeed 	0.027499968560343
scalar MyScenario.node[161].veinsmobility 	maxSpeed 	13.854666040582
scalar MyScenario.node[161].veinsmobility 	totalDistance 	471.08319277559
scalar MyScenario.node[161].veinsmobility 	totalCO2Emission 	156.86853716597
scalar MyScenario.node[321].appl 	generatedWSMs 	1
scalar MyScenario.node[321].appl 	receivedWSMs 	8
scalar MyScenario.node[321].appl 	generatedBSMs 	0
scalar MyScenario.node[321].appl 	receivedBSMs 	0
scalar MyScenario.node[321].appl 	generatedWSAs 	0
scalar MyScenario.node[321].appl 	receivedWSAs 	0
scalar MyScenario.node[321].nic.phy80211p 	busyTime 	0.00010859574468085
scalar MyScenario.node[321].nic.mac1609_4 	ReceivedUnicastPackets 	0
scalar MyScenario.node[321].nic.mac1609_4 	ReceivedBroadcasts 	8
scalar MyScenario.node[321].nic.mac1609_4 	SentPackets 	1
scalar MyScenario.node[321].nic.mac1609_4 	SNIRLostPackets 	14
scalar MyScenario.node[321].nic.mac1609_4 	RXTXLostPackets 	13
scalar MyScenario.node[321].nic.mac1609_4 	TotalLostPackets 	27
scalar MyScenario.node[321].nic.mac1609_4 	DroppedPacketsInMac 	0
scalar MyScenario.node[321].nic.mac1609_4 	TooLittleTime 	0
scalar MyScenario.node[321].nic.mac1609_4 	TimesIntoBackoff 	1
scalar MyScenario.node[321].nic.mac1609_4 	SlotsBackoff 	2
scalar MyScenario.node[321].nic.mac1609_4 	NumInternalContention 	0
scalar MyScenario.node[321].nic.mac1609_4 	totalBusyTime 	0.002785028532
scalar MyScenario.node[321].veinsmobility 	startTime 	4
scalar MyScenario.node[321].veinsmobility 	totalTime 	46
scalar MyScenario.node[321].veinsmobility 	stopTime 	51
scalar MyScenario.node[321].veinsmobility 	minSpeed 	0.00092843939904873
scalar MyScenario.node[321].veinsmobility 	maxSpeed 	13.899491824768
scalar MyScenario.node[321].veinsmobility 	totalDistance 	378.73583808506
scalar MyScenario.node[321].veinsmobility 	totalCO2Emission 	148.42223797628
scalar MyScenario.node[179].appl 	generatedWSMs 	1
scalar MyScenario.node[179].appl 	receivedWSMs 	1
scalar MyScenario.node[179].appl 	generatedBSMs 	0
scalar MyScenario.node[179].appl 	receivedBSMs 	0
scalar MyScenario.node[179].appl 	generatedWSAs 	0
scalar MyScenario.node[179].appl 	receivedWSAs 	0
scalar MyScenario.node[179].nic.phy80211p 	busyTime 	4.176e-05
scalar MyScenario.node[179].nic.mac1609_4 	ReceivedUnicastPackets 	0
scalar MyScenario.node[179].nic.mac1609_4 	ReceivedBroadcasts 	1
scalar MyScenario.node[179].nic.mac1609_4 	SentPackets 	1
scalar MyScenario.node[179].nic.mac1609_4 	SNIRLostPackets 	8
scalar MyScenario.node[179].nic.mac1609_4 	RXTXLostPackets 	15
scalar MyScenario.node[179].nic.mac1609_4 	TotalLostPackets 	23
scalar MyScenario.node[179].nic.mac1609_4 	DroppedPacketsInMac 	0
scalar MyScenario.node[179].nic.mac1609_4 	TooLittleTime 	0
scalar MyScenario.node[179].nic.mac1609_4 	TimesIntoBackoff 	1
scalar MyScenario.node[179].nic.mac1609_4 	SlotsBackoff 	1
scalar MyScenario.node[179].nic.mac1609_4 	NumInternalContention 	0
scalar MyScenario.node[179].nic.mac1609_4 	totalBusyTime 	0.001161087337
scalar MyScenario.node[179].veinsmobility 	startTime 	1
scalar MyScenario.node[179].veinsmobility 	totalTime 	49
scalar MyScenario.node[179].veinsmobility 	stopTime 	51
scalar MyScenario.node[179].veinsmobility 	minSpeed 	1.6520538177108
scalar MyScenario.node[179].veinsmobility 	maxSpeed 	13.828174807527
scalar MyScenario.node[179].veinsmobility 	totalDistance 	567.03111045717
scalar MyScenario.node[179].veinsmobility 	totalCO2Emission 	146.59537684334
scalar MyScenario.node[211].appl 	generatedWSMs 	1
scalar MyScenario.node[211].appl 	receivedWSMs 	18
scalar MyScenario.node[211].appl 	generatedBSMs 	0
scalar MyScenario.node[211].appl 	receivedBSMs 	0
scalar MyScenario.node[211].appl 	generatedWSAs 	0
scalar MyScenario.node[211].appl 	receivedWSAs 	0
[...]
scalar MyScenario.node[311].nic.mac1609_4 	TooLittleTime 	0
scalar MyScenario.node[311].nic.mac1609_4 	TimesIntoBackoff 	1
scalar MyScenario.node[311].nic.mac1609_4 	SlotsBackoff 	2
scalar MyScenario.node[311].nic.mac1609_4 	NumInternalContention 	0
scalar MyScenario.node[311].nic.mac1609_4 	totalBusyTime 	0.001857
scalar MyScenario.node[311].veinsmobility 	startTime 	4
scalar MyScenario.node[311].veinsmobility 	totalTime 	168
scalar MyScenario.node[311].veinsmobility 	stopTime 	173
scalar MyScenario.node[311].veinsmobility 	minSpeed 	8.2845042033482e-14
scalar MyScenario.node[311].veinsmobility 	maxSpeed 	13.875262945518
scalar MyScenario.node[311].veinsmobility 	totalDistance 	1257.5690301862
scalar MyScenario.node[311].veinsmobility 	totalCO2Emission 	454.57162458935
scalar MyScenario.node[319].appl 	generatedWSMs 	1
scalar MyScenario.node[319].appl 	receivedWSMs 	20
scalar MyScenario.node[319].appl 	generatedBSMs 	0
scalar MyScenario.node[319].appl 	receivedBSMs 	0
scalar MyScenario.node[319].appl 	generatedWSAs 	0
scalar MyScenario.node[319].appl 	receivedWSAs 	0
scalar MyScenario.node[319].nic.phy80211p 	busyTime 	9.7467455621302e-05
scalar MyScenario.node[319].nic.mac1609_4 	ReceivedUnicastPackets 	0
scalar MyScenario.node[319].nic.mac1609_4 	ReceivedBroadcasts 	20
scalar MyScenario.node[319].nic.mac1609_4 	SentPackets 	1
scalar MyScenario.node[319].nic.mac1609_4 	SNIRLostPackets 	51
scalar MyScenario.node[319].nic.mac1609_4 	RXTXLostPackets 	6
scalar MyScenario.node[319].nic.mac1609_4 	TotalLostPackets 	57
scalar MyScenario.node[319].nic.mac1609_4 	DroppedPacketsInMac 	0
scalar MyScenario.node[319].nic.mac1609_4 	TooLittleTime 	0
scalar MyScenario.node[319].nic.mac1609_4 	TimesIntoBackoff 	1
scalar MyScenario.node[319].nic.mac1609_4 	SlotsBackoff 	0
scalar MyScenario.node[319].nic.mac1609_4 	NumInternalContention 	0
scalar MyScenario.node[319].nic.mac1609_4 	totalBusyTime 	0.007193120241
scalar MyScenario.node[319].veinsmobility 	startTime 	4
scalar MyScenario.node[319].veinsmobility 	totalTime 	168
scalar MyScenario.node[319].veinsmobility 	stopTime 	173
scalar MyScenario.node[319].veinsmobility 	minSpeed 	2.4085601758961e-15
scalar MyScenario.node[319].veinsmobility 	maxSpeed 	13.897771475813
scalar MyScenario.node[319].veinsmobility 	totalDistance 	1448.5165041297
scalar MyScenario.node[319].veinsmobility 	totalCO2Emission 	476.0563505487
scalar MyScenario.node[313].appl 	generatedWSMs 	1
scalar MyScenario.node[313].appl 	receivedWSMs 	8
scalar MyScenario.node[313].appl 	generatedBSMs 	0
scalar MyScenario.node[313].appl 	receivedBSMs 	0
scalar MyScenario.node[313].appl 	generatedWSAs 	0
scalar MyScenario.node[313].appl 	receivedWSAs 	0
scalar MyScenario.node[313].nic.phy80211p 	busyTime 	2.3337278106509e-05
scalar MyScenario.node[313].nic.mac1609_4 	ReceivedUnicastPackets 	0
scalar MyScenario.node[313].nic.mac1609_4 	ReceivedBroadcasts 	8
scalar MyScenario.node[313].nic.mac1609_4 	SentPackets 	1
scalar MyScenario.node[313].nic.mac1609_4 	SNIRLostPackets 	9
scalar MyScenario.node[313].nic.mac1609_4 	RXTXLostPackets 	0
scalar MyScenario.node[313].nic.mac1609_4 	TotalLostPackets 	9
scalar MyScenario.node[313].nic.mac1609_4 	DroppedPacketsInMac 	0
scalar MyScenario.node[313].nic.mac1609_4 	TooLittleTime 	0
scalar MyScenario.node[313].nic.mac1609_4 	TimesIntoBackoff 	1
scalar MyScenario.node[313].nic.mac1609_4 	SlotsBackoff 	1
scalar MyScenario.node[313].nic.mac1609_4 	NumInternalContention 	0
scalar MyScenario.node[313].nic.mac1609_4 	totalBusyTime 	0.003017
scalar MyScenario.node[313].veinsmobility 	startTime 	4
scalar MyScenario.node[313].veinsmobility 	totalTime 	168
scalar MyScenario.node[313].veinsmobility 	stopTime 	173
scalar MyScenario.node[313].veinsmobility 	minSpeed 	0.0037223080186605
scalar MyScenario.node[313].veinsmobility 	maxSpeed 	13.894676002115
scalar MyScenario.node[313].veinsmobility 	totalDistance 	1573.3598658832
scalar MyScenario.node[313].veinsmobility 	totalCO2Emission 	474.37936673294
scalar MyScenario.node[139].appl 	generatedWSMs 	1
scalar MyScenario.node[139].appl 	receivedWSMs 	3
scalar MyScenario.node[139].appl 	generatedBSMs 	0
scalar MyScenario.node[139].appl 	receivedBSMs 	0
scalar MyScenario.node[139].appl 	generatedWSAs 	0
scalar MyScenario.node[139].appl 	receivedWSAs 	0
scalar MyScenario.node[139].nic.phy80211p 	busyTime 	6.1687861271676e-05
scalar MyScenario.node[139].nic.mac1609_4 	ReceivedUnicastPackets 	0
scalar MyScenario.node[139].nic.mac1609_4 	ReceivedBroadcasts 	3
scalar MyScenario.node[139].nic.mac1609_4 	SentPackets 	1
scalar MyScenario.node[139].nic.mac1609_4 	SNIRLostPackets 	43
scalar MyScenario.node[139].nic.mac1609_4 	RXTXLostPackets 	5
scalar MyScenario.node[139].nic.mac1609_4 	TotalLostPackets 	48
scalar MyScenario.node[139].nic.mac1609_4 	DroppedPacketsInMac 	0
scalar MyScenario.node[139].nic.mac1609_4 	TooLittleTime 	0
scalar MyScenario.node[139].nic.mac1609_4 	TimesIntoBackoff 	1
scalar MyScenario.node[139].nic.mac1609_4 	SlotsBackoff 	3
scalar MyScenario.node[139].nic.mac1609_4 	NumInternalContention 	0
scalar MyScenario.node[139].nic.mac1609_4 	totalBusyTime 	0.003481070746
scalar MyScenario.node[139].veinsmobility 	startTime 	1
scalar MyScenario.node[139].veinsmobility 	totalTime 	172
scalar MyScenario.node[139].veinsmobility 	stopTime 	174
scalar MyScenario.node[139].veinsmobility 	minSpeed 	6.6985988843304e-11
scalar MyScenario.node[139].veinsmobility 	maxSpeed 	13.85819953226
scalar MyScenario.node[139].veinsmobility 	totalDistance 	1077.4518538579
scalar MyScenario.node[139].veinsmobility 	totalCO2Emission 	439.01232875484
scalar MyScenario.node[379].appl 	generatedWSMs 	1
scalar MyScenario.node[379].appl 	receivedWSMs 	11
scalar MyScenario.node[379].appl 	generatedBSMs 	0
scalar MyScenario.node[379].appl 	receivedBSMs 	0
scalar MyScenario.node[379].appl 	generatedWSAs 	0
scalar MyScenario.node[379].appl 	receivedWSAs 	0
scalar MyScenario.node[379].nic.phy80211p 	busyTime 	3.5692307692308e-05
scalar MyScenario.node[379].nic.mac1609_4 	ReceivedUnicastPackets 	0
scalar MyScenario.node[379].nic.mac1609_4 	ReceivedBroadcasts 	11
scalar MyScenario.node[379].nic.mac1609_4 	SentPackets 	1
scalar MyScenario.node[379].nic.mac1609_4 	SNIRLostPackets 	15
scalar MyScenario.node[379].nic.mac1609_4 	RXTXLostPackets 	22
scalar MyScenario.node[379].nic.mac1609_4 	TotalLostPackets 	37
scalar MyScenario.node[379].nic.mac1609_4 	DroppedPacketsInMac 	0
scalar MyScenario.node[379].nic.mac1609_4 	TooLittleTime 	0
scalar MyScenario.node[379].nic.mac1609_4 	TimesIntoBackoff 	1
scalar MyScenario.node[379].nic.mac1609_4 	SlotsBackoff 	0
scalar MyScenario.node[379].nic.mac1609_4 	NumInternalContention 	0
scalar MyScenario.node[379].nic.mac1609_4 	totalBusyTime 	0.003945000406
scalar MyScenario.node[379].veinsmobility 	startTime 	7
scalar MyScenario.node[379].veinsmobility 	totalTime 	168
scalar MyScenario.node[379].veinsmobility 	stopTime 	176
scalar MyScenario.node[379].veinsmobility 	minSpeed 	3.4915740902101e-15
scalar MyScenario.node[379].veinsmobility 	maxSpeed 	13.890489509259
scalar MyScenario.node[379].veinsmobility 	totalDistance 	1162.7847313518
scalar MyScenario.node[379].veinsmobility 	totalCO2Emission 	460.34298172515
scalar MyScenario.node[273].appl 	generatedWSMs 	1
scalar MyScenario.node[273].appl 	receivedWSMs 	5
scalar MyScenario.node[273].appl 	generatedBSMs 	0
scalar MyScenario.node[273].appl 	receivedBSMs 	0
scalar MyScenario.node[273].appl 	generatedWSAs 	0
scalar MyScenario.node[273].appl 	receivedWSAs 	0
scalar MyScenario.node[273].nic.phy80211p 	busyTime 	5.4982658959538e-05
scalar MyScenario.node[273].nic.mac1609_4 	ReceivedUnicastPackets 	0
scalar MyScenario.node[273].nic.mac1609_4 	ReceivedBroadcasts 	5
scalar MyScenario.node[273].nic.mac1609_4 	SentPackets 	1
scalar MyScenario.node[273].nic.mac1609_4 	SNIRLostPackets 	36
scalar MyScenario.node[273].nic.mac1609_4 	RXTXLostPackets 	22
scalar MyScenario.node[273].nic.mac1609_4 	TotalLostPackets 	58
scalar MyScenario.node[273].nic.mac1609_4 	DroppedPacketsInMac 	0
scalar MyScenario.node[273].nic.mac1609_4 	TooLittleTime 	0
scalar MyScenario.node[273].nic.mac1609_4 	TimesIntoBackoff 	1
scalar MyScenario.node[273].nic.mac1609_4 	SlotsBackoff 	3
scalar MyScenario.node[273].nic.mac1609_4 	NumInternalContention 	0
scalar MyScenario.node[273].nic.mac1609_4 	totalBusyTime 	0.003481188083
scalar MyScenario.node[273].veinsmobility 	startTime 	4
scalar MyScenario.node[273].veinsmobility 	totalTime 	172
scalar MyScenario.node[273].veinsmobility 	stopTime 	177
scalar MyScenario.node[273].veinsmobility 	minSpeed 	3.2002432806828e-15
scalar MyScenario.node[273].veinsmobility 	maxSpeed 	13.898754884116
scalar MyScenario.node[273].veinsmobility 	totalDistance 	1159.6216879661
scalar MyScenario.node[273].veinsmobility 	totalCO2Emission 	410.4409778709
scalar MyScenario.node[205].appl 	generatedWSMs 	1
scalar MyScenario.node[205].appl 	receivedWSMs 	7
scalar MyScenario.node[205].appl 	generatedBSMs 	0
scalar MyScenario.node[205].appl 	receivedBSMs 	0
scalar MyScenario.node[205].appl 	generatedWSAs 	0
scalar MyScenario.node[205].appl 	receivedWSAs 	0
scalar MyScenario.node[205].nic.phy80211p 	busyTime 	6.6847457627119e-05
scalar MyScenario.node[205].nic.mac1609_4 	ReceivedUnicastPackets 	0
scalar MyScenario.node[205].nic.mac1609_4 	ReceivedBroadcasts 	7
scalar MyScenario.node[205].nic.mac1609_4 	SentPackets 	1
scalar MyScenario.node[205].nic.mac1609_4 	SNIRLostPackets 	44
scalar MyScenario.node[205].nic.mac1609_4 	RXTXLostPackets 	5
scalar MyScenario.node[205].nic.mac1609_4 	TotalLostPackets 	49
scalar MyScenario.node[205].nic.mac1609_4 	DroppedPacketsInMac 	0
scalar MyScenario.node[205].nic.mac1609_4 	TooLittleTime 	0
scalar MyScenario.node[205].nic.mac1609_4 	TimesIntoBackoff 	1
scalar MyScenario.node[205].nic.mac1609_4 	SlotsBackoff 	1
scalar MyScenario.node[205].nic.mac1609_4 	NumInternalContention 	0
scalar MyScenario.node[205].nic.mac1609_4 	totalBusyTime 	0.003945239683
scalar MyScenario.node[205].veinsmobility 	startTime 	1
scalar MyScenario.node[205].veinsmobility 	totalTime 	176
scalar MyScenario.node[205].veinsmobility 	stopTime 	178
scalar MyScenario.node[205].veinsmobility 	minSpeed 	7.2691470727711e-12
scalar MyScenario.node[205].veinsmobility 	maxSpeed 	13.89822710976
scalar MyScenario.node[205].veinsmobility 	totalDistance 	1166.9705136063
scalar MyScenario.node[205].veinsmobility 	totalCO2Emission 	461.23327601099
scalar MyScenario.node[13].appl 	generatedWSMs 	1
scalar MyScenario.node[13].appl 	receivedWSMs 	7
scalar MyScenario.node[13].appl 	generatedBSMs 	0
scalar MyScenario.node[13].appl 	receivedBSMs 	0
scalar MyScenario.node[13].appl 	generatedWSAs 	0
scalar MyScenario.node[13].appl 	receivedWSAs 	0
scalar MyScenario.node[13].nic.phy80211p 	busyTime 	6.9988826815642e-05
scalar MyScenario.node[13].nic.mac1609_4 	ReceivedUnicastPackets 	0
scalar MyScenario.node[13].nic.mac1609_4 	ReceivedBroadcasts 	7
scalar MyScenario.node[13].nic.mac1609_4 	SentPackets 	1
scalar MyScenario.node[13].nic.mac1609_4 	SNIRLostPackets 	47
scalar MyScenario.node[13].nic.mac1609_4 	RXTXLostPackets 	16
scalar MyScenario.node[13].nic.mac1609_4 	TotalLostPackets 	63
scalar MyScenario.node[13].nic.mac1609_4 	DroppedPacketsInMac 	0
scalar MyScenario.node[13].nic.mac1609_4 	TooLittleTime 	0
scalar MyScenario.node[13].nic.mac1609_4 	TimesIntoBackoff 	1
scalar MyScenario.node[13].nic.mac1609_4 	SlotsBackoff 	2
scalar MyScenario.node[13].nic.mac1609_4 	NumInternalContention 	0
scalar MyScenario.node[13].nic.mac1609_4 	totalBusyTime 	0.003713151349
scalar MyScenario.node[13].veinsmobility 	startTime 	1
scalar MyScenario.node[13].veinsmobility 	totalTime 	178
scalar MyScenario.node[13].veinsmobility 	stopTime 	180
scalar MyScenario.node[13].veinsmobility 	minSpeed 	2.4743923100131e-15
scalar MyScenario.node[13].veinsmobility 	maxSpeed 	13.884115017718
scalar MyScenario.node[13].veinsmobility 	totalDistance 	1173.1487949757
scalar MyScenario.node[13].veinsmobility 	totalCO2Emission 	405.41700069614
scalar MyScenario.node[36].appl 	generatedWSMs 	1
scalar MyScenario.node[36].appl 	receivedWSMs 	19
scalar MyScenario.node[36].appl 	generatedBSMs 	0
scalar MyScenario.node[36].appl 	receivedBSMs 	0
scalar MyScenario.node[36].appl 	generatedWSAs 	0
scalar MyScenario.node[36].appl 	receivedWSAs 	0
scalar MyScenario.node[36].nic.phy80211p 	busyTime 	6.5733333333333e-05
scalar MyScenario.node[36].nic.mac1609_4 	ReceivedUnicastPackets 	0
scalar MyScenario.node[36].nic.mac1609_4 	ReceivedBroadcasts 	19
scalar MyScenario.node[36].nic.mac1609_4 	SentPackets 	1
scalar MyScenario.node[36].nic.mac1609_4 	SNIRLostPackets 	32
scalar MyScenario.node[36].nic.mac1609_4 	RXTXLostPackets 	25
scalar MyScenario.node[36].nic.mac1609_4 	TotalLostPackets 	57
scalar MyScenario.node[36].nic.mac1609_4 	DroppedPacketsInMac 	0
scalar MyScenario.node[36].nic.mac1609_4 	TooLittleTime 	0
scalar MyScenario.node[36].nic.mac1609_4 	TimesIntoBackoff 	1
scalar MyScenario.node[36].nic.mac1609_4 	SlotsBackoff 	2
scalar MyScenario.node[36].nic.mac1609_4 	NumInternalContention 	0
scalar MyScenario.node[36].nic.mac1609_4 	totalBusyTime 	0.006729100083
scalar MyScenario.node[36].veinsmobility 	startTime 	1
scalar MyScenario.node[36].veinsmobility 	totalTime 	179
scalar MyScenario.node[36].veinsmobility 	stopTime 	181
scalar MyScenario.node[36].veinsmobility 	minSpeed 	5.9302526124915e-10
scalar MyScenario.node[36].veinsmobility 	maxSpeed 	13.774299859651
scalar MyScenario.node[36].veinsmobility 	totalDistance 	1266.7246280782
scalar MyScenario.node[36].veinsmobility 	totalCO2Emission 	493.10215476993
scalar MyScenario.node[203].appl 	generatedWSMs 	1
scalar MyScenario.node[203].appl 	receivedWSMs 	4
scalar MyScenario.node[203].appl 	generatedBSMs 	0
scalar MyScenario.node[203].appl 	receivedBSMs 	0
scalar MyScenario.node[203].appl 	generatedWSAs 	0
scalar MyScenario.node[203].appl 	receivedWSAs 	0
scalar MyScenario.node[203].nic.phy80211p 	busyTime 	3.2044198895028e-05
scalar MyScenario.node[203].nic.mac1609_4 	ReceivedUnicastPackets 	0
scalar MyScenario.node[203].nic.mac1609_4 	ReceivedBroadcasts 	4
scalar MyScenario.node[203].nic.mac1609_4 	SentPackets 	1
scalar MyScenario.node[203].nic.mac1609_4 	SNIRLostPackets 	21
scalar MyScenario.node[203].nic.mac1609_4 	RXTXLostPackets 	24
scalar MyScenario.node[203].nic.mac1609_4 	TotalLostPackets 	45
scalar MyScenario.node[203].nic.mac1609_4 	DroppedPacketsInMac 	0
scalar MyScenario.node[203].nic.mac1609_4 	TooLittleTime 	0
scalar MyScenario.node[203].nic.mac1609_4 	TimesIntoBackoff 	1
scalar MyScenario.node[203].nic.mac1609_4 	SlotsBackoff 	3
scalar MyScenario.node[203].nic.mac1609_4 	NumInternalContention 	0
scalar MyScenario.node[203].nic.mac1609_4 	totalBusyTime 	0.003249136016
scalar MyScenario.node[203].veinsmobility 	startTime 	1
scalar MyScenario.node[203].veinsmobility 	totalTime 	180
scalar MyScenario.node[203].veinsmobility 	stopTime 	182
scalar MyScenario.node[203].veinsmobility 	minSpeed 	3.4424199772157e-14
scalar MyScenario.node[203].veinsmobility 	maxSpeed 	13.821873574494
scalar MyScenario.node[203].veinsmobility 	totalDistance 	1174.4753682061
scalar MyScenario.node[203].veinsmobility 	totalCO2Emission 	461.9734111453
scalar MyScenario.node[71].appl 	generatedWSMs 	1
scalar MyScenario.node[71].appl 	receivedWSMs 	9
scalar MyScenario.node[71].appl 	generatedBSMs 	0
scalar MyScenario.node[71].appl 	receivedBSMs 	0
scalar MyScenario.node[71].appl 	generatedWSAs 	0
scalar MyScenario.node[71].appl 	receivedWSAs 	0
scalar MyScenario.node[71].nic.phy80211p 	busyTime 	5.9584699453552e-05
scalar MyScenario.node[71].nic.mac1609_4 	ReceivedUnicastPackets 	0
scalar MyScenario.node[71].nic.mac1609_4 	ReceivedBroadcasts 	9
scalar MyScenario.node[71].nic.mac1609_4 	SentPackets 	1
scalar MyScenario.node[71].nic.mac1609_4 	SNIRLostPackets 	38
scalar MyScenario.node[71].nic.mac1609_4 	RXTXLostPackets 	9
scalar MyScenario.node[71].nic.mac1609_4 	TotalLostPackets 	47
scalar MyScenario.node[71].nic.mac1609_4 	DroppedPacketsInMac 	0
scalar MyScenario.node[71].nic.mac1609_4 	TooLittleTime 	0
scalar MyScenario.node[71].nic.mac1609_4 	TimesIntoBackoff 	1
scalar MyScenario.node[71].nic.mac1609_4 	SlotsBackoff 	2
scalar MyScenario.node[71].nic.mac1609_4 	NumInternalContention 	0
scalar MyScenario.node[71].nic.mac1609_4 	totalBusyTime 	0.005337049698
scalar MyScenario.node[71].veinsmobility 	startTime 	1
scalar MyScenario.node[71].veinsmobility 	totalTime 	182
scalar MyScenario.node[71].veinsmobility 	stopTime 	184
scalar MyScenario.node[71].veinsmobility 	minSpeed 	8.723177831807e-08
scalar MyScenario.node[71].veinsmobility 	maxSpeed 	13.893532376597
scalar MyScenario.node[71].veinsmobility 	totalDistance 	1468.3784340467
scalar MyScenario.node[71].veinsmobility 	totalCO2Emission 	488.93927773065
scalar MyScenario.node[151].appl 	generatedWSMs 	1
scalar MyScenario.node[151].appl 	receivedWSMs 	10
scalar MyScenario.node[151].appl 	generatedBSMs 	0
scalar MyScenario.node[151].appl 	receivedBSMs 	0
scalar MyScenario.node[151].appl 	generatedWSAs 	0
scalar MyScenario.node[151].appl 	receivedWSAs 	0
scalar MyScenario.node[151].nic.phy80211p 	busyTime 	4.4371584699454e-05
scalar MyScenario.node[151].nic.mac1609_4 	ReceivedUnicastPackets 	0
scalar MyScenario.node[151].nic.mac1609_4 	ReceivedBroadcasts 	10
scalar MyScenario.node[151].nic.mac1609_4 	SentPackets 	1
scalar MyScenario.node[151].nic.mac1609_4 	SNIRLostPackets 	25
scalar MyScenario.node[151].nic.mac1609_4 	RXTXLostPackets 	10
scalar MyScenario.node[151].nic.mac1609_4 	TotalLostPackets 	35
scalar MyScenario.node[151].nic.mac1609_4 	DroppedPacketsInMac 	0
scalar MyScenario.node[151].nic.mac1609_4 	TooLittleTime 	0
scalar MyScenario.node[151].nic.mac1609_4 	TimesIntoBackoff 	1
scalar MyScenario.node[151].nic.mac1609_4 	SlotsBackoff 	1
scalar MyScenario.node[151].nic.mac1609_4 	NumInternalContention 	0
scalar MyScenario.node[151].nic.mac1609_4 	totalBusyTime 	0.00394520006
scalar MyScenario.node[151].veinsmobility 	startTime 	1
scalar MyScenario.node[151].veinsmobility 	totalTime 	182
scalar MyScenario.node[151].veinsmobility 	stopTime 	184
scalar MyScenario.node[151].veinsmobility 	minSpeed 	1.0116200857035e-06
scalar MyScenario.node[151].veinsmobility 	maxSpeed 	13.886728047905
scalar MyScenario.node[151].veinsmobility 	totalDistance 	1367.9689491798
scalar MyScenario.node[151].veinsmobility 	totalCO2Emission 	493.04619396518
scalar MyScenario.node[0].appl 	generatedWSMs 	62
scalar MyScenario.node[0].appl 	receivedWSMs 	10
scalar MyScenario.node[0].appl 	generatedBSMs 	0
scalar MyScenario.node[0].appl 	receivedBSMs 	0
scalar MyScenario.node[0].appl 	generatedWSAs 	0
scalar MyScenario.node[0].appl 	receivedWSAs 	0
scalar MyScenario.node[0].nic.phy80211p 	busyTime 	0.000116
scalar MyScenario.node[0].nic.mac1609_4 	ReceivedUnicastPackets 	0
scalar MyScenario.node[0].nic.mac1609_4 	ReceivedBroadcasts 	10
scalar MyScenario.node[0].nic.mac1609_4 	SentPackets 	62
scalar MyScenario.node[0].nic.mac1609_4 	SNIRLostPackets 	82
scalar MyScenario.node[0].nic.mac1609_4 	RXTXLostPackets 	0
scalar MyScenario.node[0].nic.mac1609_4 	TotalLostPackets 	82
scalar MyScenario.node[0].nic.mac1609_4 	DroppedPacketsInMac 	0
scalar MyScenario.node[0].nic.mac1609_4 	TooLittleTime 	0
scalar MyScenario.node[0].nic.mac1609_4 	TimesIntoBackoff 	62
scalar MyScenario.node[0].nic.mac1609_4 	SlotsBackoff 	105
scalar MyScenario.node[0].nic.mac1609_4 	NumInternalContention 	0
scalar MyScenario.node[0].nic.mac1609_4 	totalBusyTime 	0.01908644193
scalar MyScenario.node[0].veinsmobility 	startTime 	1
scalar MyScenario.node[0].veinsmobility 	totalTime 	183
scalar MyScenario.node[0].veinsmobility 	stopTime 	185
scalar MyScenario.node[0].veinsmobility 	minSpeed 	3.07625583774e-15
scalar MyScenario.node[0].veinsmobility 	maxSpeed 	13.890626774263
scalar MyScenario.node[0].veinsmobility 	totalDistance 	1268.8773625572
scalar MyScenario.node[0].veinsmobility 	totalCO2Emission 	486.10257985004
