version 2
run General-11-20170829-17:39:06-8100
attr configname General
attr datetime 20170829-17:39:06
attr density 200
attr experiment General
attr inifile omnetpp.ini
attr iterationvars $density=200
attr iterationvars2 "$density=200, $repetition=1"
attr measurement $density=200
attr network com.liborio.pi.MyScenario
attr processid 8100
attr repetition 1
attr replication #1
attr resultdir results
attr runnumber 11
attr seedset 1
param **.coreDebug false
param **.debug false
param *.**.nic.mac1609_4.bitrate 6Mbps
param *.**.nic.mac1609_4.txPower 20mW
param *.**.nic.mac1609_4.useServiceChannel true
param *.**.nic.phy80211p.analogueModels "xmldoc(\"config.xml\")"
param *.**.nic.phy80211p.antenna "xmldoc(\"antenna.xml\", \"/root/Antenna[@id='monopole']\")"
param *.**.nic.phy80211p.decider "xmldoc(\"config.xml\")"
param *.**.nic.phy80211p.sensitivity -84.39dBm
param *.**.nic.phy80211p.thermalNoise -110dBm
param *.**.nic.phy80211p.usePropagationDelay true
param *.**.nic.phy80211p.useThermalNoise true
param *.annotations.draw true
param *.connectionManager.drawMaxIntfDist false
param *.connectionManager.maxInterfDist 2600m
param *.connectionManager.sendDirect true
param *.manager.autoShutdown true
param *.manager.host "\"localhost\""
param *.manager.launchConfig "xmldoc(string(${density = 100, 200, 300, 400})+\"_\"+ string(${repetition})+\".launchd.xml\")"
param *.manager.port 9999
param *.manager.updateInterval 1s
param *.node[*].appl.beaconInterval 1s
param *.node[*].appl.dataOnSch true
param *.node[*].appl.headerLength "80 bit"
param *.node[*].appl.isSource false
param *.node[*].appl.numMsgs 100
param *.node[*].appl.sendBeacons false
param *.node[*].appl.stopTrafficTime 130s
param *.node[*].appl.wsmInterval 3s
param *.node[*].applType "\"Flooding\""
param *.node[*].veinsmobility.x 0
param *.node[*].veinsmobility.y 0
param *.node[*].veinsmobility.z 1.895
param *.node[*].veinsmobilityType.debug true
param *.node[0].appl.isSource true
param *.playgroundSizeX 2500m
param *.playgroundSizeY 2500m
param *.playgroundSizeZ 50m

scalar . 	density 	200
scalar MyScenario.node[40].appl 	generatedWSMs 	1
scalar MyScenario.node[40].appl 	receivedWSMs 	4
scalar MyScenario.node[40].appl 	generatedBSMs 	0
scalar MyScenario.node[40].appl 	receivedBSMs 	0
scalar MyScenario.node[40].appl 	generatedWSAs 	0
scalar MyScenario.node[40].appl 	receivedWSAs 	0
scalar MyScenario.node[40].nic.phy80211p 	busyTime 	0.0005104
scalar MyScenario.node[40].nic.mac1609_4 	ReceivedUnicastPackets 	0
scalar MyScenario.node[40].nic.mac1609_4 	ReceivedBroadcasts 	4
scalar MyScenario.node[40].nic.mac1609_4 	SentPackets 	1
scalar MyScenario.node[40].nic.mac1609_4 	SNIRLostPackets 	18
scalar MyScenario.node[40].nic.mac1609_4 	RXTXLostPackets 	15
scalar MyScenario.node[40].nic.mac1609_4 	TotalLostPackets 	33
scalar MyScenario.node[40].nic.mac1609_4 	DroppedPacketsInMac 	0
scalar MyScenario.node[40].nic.mac1609_4 	TooLittleTime 	0
scalar MyScenario.node[40].nic.mac1609_4 	TimesIntoBackoff 	1
scalar MyScenario.node[40].nic.mac1609_4 	SlotsBackoff 	3
scalar MyScenario.node[40].nic.mac1609_4 	NumInternalContention 	0
scalar MyScenario.node[40].nic.mac1609_4 	totalBusyTime 	0.001857120124
scalar MyScenario.node[40].veinsmobility 	startTime 	1
scalar MyScenario.node[40].veinsmobility 	totalTime 	9
scalar MyScenario.node[40].veinsmobility 	stopTime 	11
scalar MyScenario.node[40].veinsmobility 	minSpeed 	2.1887224991107
scalar MyScenario.node[40].veinsmobility 	maxSpeed 	13.437644856237
scalar MyScenario.node[40].veinsmobility 	totalDistance 	80.867076291516
scalar MyScenario.node[40].veinsmobility 	totalCO2Emission 	36.127819308176
scalar MyScenario.node[140].appl 	generatedWSMs 	0
scalar MyScenario.node[140].appl 	receivedWSMs 	0
scalar MyScenario.node[140].appl 	generatedBSMs 	0
scalar MyScenario.node[140].appl 	receivedBSMs 	0
scalar MyScenario.node[140].appl 	generatedWSAs 	0
scalar MyScenario.node[140].appl 	receivedWSAs 	0
scalar MyScenario.node[140].nic.phy80211p 	busyTime 	0
scalar MyScenario.node[140].nic.mac1609_4 	ReceivedUnicastPackets 	0
scalar MyScenario.node[140].nic.mac1609_4 	ReceivedBroadcasts 	0
scalar MyScenario.node[140].nic.mac1609_4 	SentPackets 	0
scalar MyScenario.node[140].nic.mac1609_4 	SNIRLostPackets 	0
scalar MyScenario.node[140].nic.mac1609_4 	RXTXLostPackets 	0
scalar MyScenario.node[140].nic.mac1609_4 	TotalLostPackets 	0
scalar MyScenario.node[140].nic.mac1609_4 	DroppedPacketsInMac 	0
scalar MyScenario.node[140].nic.mac1609_4 	TooLittleTime 	0
scalar MyScenario.node[140].nic.mac1609_4 	TimesIntoBackoff 	0
scalar MyScenario.node[140].nic.mac1609_4 	SlotsBackoff 	0
scalar MyScenario.node[140].nic.mac1609_4 	NumInternalContention 	0
scalar MyScenario.node[140].nic.mac1609_4 	totalBusyTime 	0
scalar MyScenario.node[140].veinsmobility 	startTime 	1
scalar MyScenario.node[140].veinsmobility 	totalTime 	9
scalar MyScenario.node[140].veinsmobility 	stopTime 	11
scalar MyScenario.node[140].veinsmobility 	minSpeed 	2.4749876045389
scalar MyScenario.node[140].veinsmobility 	maxSpeed 	13.683763108938
scalar MyScenario.node[140].veinsmobility 	totalDistance 	86.360029935312
scalar MyScenario.node[140].veinsmobility 	totalCO2Emission 	38.654124786924
scalar MyScenario.node[29].appl 	generatedWSMs 	1
scalar MyScenario.node[29].appl 	receivedWSMs 	4
scalar MyScenario.node[29].appl 	generatedBSMs 	0
scalar MyScenario.node[29].appl 	receivedBSMs 	0
scalar MyScenario.node[29].appl 	generatedWSAs 	0
scalar MyScenario.node[29].appl 	receivedWSAs 	0
scalar MyScenario.node[29].nic.phy80211p 	busyTime 	0.0002552
scalar MyScenario.node[29].nic.mac1609_4 	ReceivedUnicastPackets 	0
scalar MyScenario.node[29].nic.mac1609_4 	ReceivedBroadcasts 	4
scalar MyScenario.node[29].nic.mac1609_4 	SentPackets 	1
scalar MyScenario.node[29].nic.mac1609_4 	SNIRLostPackets 	7
scalar MyScenario.node[29].nic.mac1609_4 	RXTXLostPackets 	9
scalar MyScenario.node[29].nic.mac1609_4 	TotalLostPackets 	16
scalar MyScenario.node[29].nic.mac1609_4 	DroppedPacketsInMac 	0
scalar MyScenario.node[29].nic.mac1609_4 	TooLittleTime 	0
scalar MyScenario.node[29].nic.mac1609_4 	TimesIntoBackoff 	1
scalar MyScenario.node[29].nic.mac1609_4 	SlotsBackoff 	3
scalar MyScenario.node[29].nic.mac1609_4 	NumInternalContention 	0
scalar MyScenario.node[29].nic.mac1609_4 	totalBusyTime 	0.001393075104
scalar MyScenario.node[29].veinsmobility 	startTime 	1
scalar MyScenario.node[29].veinsmobility 	totalTime 	9
scalar MyScenario.node[29].veinsmobility 	stopTime 	11
scalar MyScenario.node[29].veinsmobility 	minSpeed 	1.6575858970871
scalar MyScenario.node[29].veinsmobility 	maxSpeed 	13.602348473808
scalar MyScenario.node[29].veinsmobility 	totalDistance 	82.804640340828
scalar MyScenario.node[29].veinsmobility 	totalCO2Emission 	38.866090417062
scalar MyScenario.node[23].appl 	generatedWSMs 	0
scalar MyScenario.node[23].appl 	receivedWSMs 	0
scalar MyScenario.node[23].appl 	generatedBSMs 	0
scalar MyScenario.node[23].appl 	receivedBSMs 	0
scalar MyScenario.node[23].appl 	generatedWSAs 	0
scalar MyScenario.node[23].appl 	receivedWSAs 	0
scalar MyScenario.node[23].nic.phy80211p 	busyTime 	0
scalar MyScenario.node[23].nic.mac1609_4 	ReceivedUnicastPackets 	0
scalar MyScenario.node[23].nic.mac1609_4 	ReceivedBroadcasts 	0
scalar MyScenario.node[23].nic.mac1609_4 	SentPackets 	0
scalar MyScenario.node[23].nic.mac1609_4 	SNIRLostPackets 	0
scalar MyScenario.node[23].nic.mac1609_4 	RXTXLostPackets 	0
scalar MyScenario.node[23].nic.mac1609_4 	TotalLostPackets 	0
scalar MyScenario.node[23].nic.mac1609_4 	DroppedPacketsInMac 	0
scalar MyScenario.node[23].nic.mac1609_4 	TooLittleTime 	0
scalar MyScenario.node[23].nic.mac1609_4 	TimesIntoBackoff 	0
scalar MyScenario.node[23].nic.mac1609_4 	SlotsBackoff 	0
scalar MyScenario.node[23].nic.mac1609_4 	NumInternalContention 	0
scalar MyScenario.node[23].nic.mac1609_4 	totalBusyTime 	0
scalar MyScenario.node[23].veinsmobility 	startTime 	1
scalar MyScenario.node[23].veinsmobility 	totalTime 	9
scalar MyScenario.node[23].veinsmobility 	stopTime 	11
scalar MyScenario.node[23].veinsmobility 	minSpeed 	2.0053648191504
scalar MyScenario.node[23].veinsmobility 	maxSpeed 	13.829361735634
scalar MyScenario.node[23].veinsmobility 	totalDistance 	83.877233153908
scalar MyScenario.node[23].veinsmobility 	totalCO2Emission 	38.313989128578
scalar MyScenario.node[113].appl 	generatedWSMs 	1
scalar MyScenario.node[113].appl 	receivedWSMs 	2
scalar MyScenario.node[113].appl 	generatedBSMs 	0
scalar MyScenario.node[113].appl 	receivedBSMs 	0
scalar MyScenario.node[113].appl 	generatedWSAs 	0
scalar MyScenario.node[113].appl 	receivedWSAs 	0
scalar MyScenario.node[113].nic.phy80211p 	busyTime 	0.00029644444444444
scalar MyScenario.node[113].nic.mac1609_4 	ReceivedUnicastPackets 	0
scalar MyScenario.node[113].nic.mac1609_4 	ReceivedBroadcasts 	2
scalar MyScenario.node[113].nic.mac1609_4 	SentPackets 	1
scalar MyScenario.node[113].nic.mac1609_4 	SNIRLostPackets 	21
scalar MyScenario.node[113].nic.mac1609_4 	RXTXLostPackets 	0
scalar MyScenario.node[113].nic.mac1609_4 	TotalLostPackets 	21
scalar MyScenario.node[113].nic.mac1609_4 	DroppedPacketsInMac 	0
scalar MyScenario.node[113].nic.mac1609_4 	TooLittleTime 	0
scalar MyScenario.node[113].nic.mac1609_4 	TimesIntoBackoff 	1
scalar MyScenario.node[113].nic.mac1609_4 	SlotsBackoff 	0
scalar MyScenario.node[113].nic.mac1609_4 	NumInternalContention 	0
scalar MyScenario.node[113].nic.mac1609_4 	totalBusyTime 	0.001857
scalar MyScenario.node[113].veinsmobility 	startTime 	1
scalar MyScenario.node[113].veinsmobility 	totalTime 	17
scalar MyScenario.node[113].veinsmobility 	stopTime 	19
scalar MyScenario.node[113].veinsmobility 	minSpeed 	1.4976272980915
scalar MyScenario.node[113].veinsmobility 	maxSpeed 	13.65536719067
scalar MyScenario.node[113].veinsmobility 	totalDistance 	182.45718349926
scalar MyScenario.node[113].veinsmobility 	totalCO2Emission 	53.453384848033
scalar MyScenario.node[71].appl 	generatedWSMs 	0
scalar MyScenario.node[71].appl 	receivedWSMs 	0
scalar MyScenario.node[71].appl 	generatedBSMs 	0
scalar MyScenario.node[71].appl 	receivedBSMs 	0
scalar MyScenario.node[71].appl 	generatedWSAs 	0
scalar MyScenario.node[71].appl 	receivedWSAs 	0
scalar MyScenario.node[71].nic.phy80211p 	busyTime 	0
scalar MyScenario.node[71].nic.mac1609_4 	ReceivedUnicastPackets 	0
scalar MyScenario.node[71].nic.mac1609_4 	ReceivedBroadcasts 	0
scalar MyScenario.node[71].nic.mac1609_4 	SentPackets 	0
scalar MyScenario.node[71].nic.mac1609_4 	SNIRLostPackets 	0
scalar MyScenario.node[71].nic.mac1609_4 	RXTXLostPackets 	0
scalar MyScenario.node[71].nic.mac1609_4 	TotalLostPackets 	0
scalar MyScenario.node[71].nic.mac1609_4 	DroppedPacketsInMac 	0
scalar MyScenario.node[71].nic.mac1609_4 	TooLittleTime 	0
scalar MyScenario.node[71].nic.mac1609_4 	TimesIntoBackoff 	0
scalar MyScenario.node[71].nic.mac1609_4 	SlotsBackoff 	0
scalar MyScenario.node[71].nic.mac1609_4 	NumInternalContention 	0
scalar MyScenario.node[71].nic.mac1609_4 	totalBusyTime 	0
scalar MyScenario.node[71].veinsmobility 	startTime 	1
scalar MyScenario.node[71].veinsmobility 	totalTime 	23
scalar MyScenario.node[71].veinsmobility 	stopTime 	25
scalar MyScenario.node[71].veinsmobility 	minSpeed 	2.5101793555776
scalar MyScenario.node[71].veinsmobility 	maxSpeed 	13.891425069934
scalar MyScenario.node[71].veinsmobility 	totalDistance 	273.57407122804
scalar MyScenario.node[71].veinsmobility 	totalCO2Emission 	71.169797288522
scalar MyScenario.node[27].appl 	generatedWSMs 	1
scalar MyScenario.node[27].appl 	receivedWSMs 	12
scalar MyScenario.node[27].appl 	generatedBSMs 	0
scalar MyScenario.node[27].appl 	receivedBSMs 	0
scalar MyScenario.node[27].appl 	generatedWSAs 	0
scalar MyScenario.node[27].appl 	receivedWSAs 	0
scalar MyScenario.node[27].nic.phy80211p 	busyTime 	0.00026514285714286
scalar MyScenario.node[27].nic.mac1609_4 	ReceivedUnicastPackets 	0
scalar MyScenario.node[27].nic.mac1609_4 	ReceivedBroadcasts 	12
scalar MyScenario.node[27].nic.mac1609_4 	SentPackets 	1
scalar MyScenario.node[27].nic.mac1609_4 	SNIRLostPackets 	20
scalar MyScenario.node[27].nic.mac1609_4 	RXTXLostPackets 	8
scalar MyScenario.node[27].nic.mac1609_4 	TotalLostPackets 	28
scalar MyScenario.node[27].nic.mac1609_4 	DroppedPacketsInMac 	0
scalar MyScenario.node[27].nic.mac1609_4 	TooLittleTime 	0
scalar MyScenario.node[27].nic.mac1609_4 	TimesIntoBackoff 	1
scalar MyScenario.node[27].nic.mac1609_4 	SlotsBackoff 	1
scalar MyScenario.node[27].nic.mac1609_4 	NumInternalContention 	0
scalar MyScenario.node[27].nic.mac1609_4 	totalBusyTime 	0.003945077287
scalar MyScenario.node[27].veinsmobility 	startTime 	1
scalar MyScenario.node[27].veinsmobility 	totalTime 	27
scalar MyScenario.node[27].veinsmobility 	stopTime 	29
scalar MyScenario.node[27].veinsmobility 	minSpeed 	1.9978159122868
scalar MyScenario.node[27].veinsmobility 	maxSpeed 	13.881049151556
scalar MyScenario.node[27].veinsmobility 	totalDistance 	277.45596485421
scalar MyScenario.node[27].veinsmobility 	totalCO2Emission 	107.18403548498
scalar MyScenario.node[103].appl 	generatedWSMs 	1
scalar MyScenario.node[103].appl 	receivedWSMs 	2
scalar MyScenario.node[103].appl 	generatedBSMs 	0
scalar MyScenario.node[103].appl 	receivedBSMs 	0
scalar MyScenario.node[103].appl 	generatedWSAs 	0
scalar MyScenario.node[103].appl 	receivedWSAs 	0
scalar MyScenario.node[103].nic.phy80211p 	busyTime 	0.0001392
scalar MyScenario.node[103].nic.mac1609_4 	ReceivedUnicastPackets 	0
scalar MyScenario.node[103].nic.mac1609_4 	ReceivedBroadcasts 	2
scalar MyScenario.node[103].nic.mac1609_4 	SentPackets 	1
scalar MyScenario.node[103].nic.mac1609_4 	SNIRLostPackets 	16
scalar MyScenario.node[103].nic.mac1609_4 	RXTXLostPackets 	4
scalar MyScenario.node[103].nic.mac1609_4 	TotalLostPackets 	20
scalar MyScenario.node[103].nic.mac1609_4 	DroppedPacketsInMac 	0
scalar MyScenario.node[103].nic.mac1609_4 	TooLittleTime 	0
scalar MyScenario.node[103].nic.mac1609_4 	TimesIntoBackoff 	1
scalar MyScenario.node[103].nic.mac1609_4 	SlotsBackoff 	2
scalar MyScenario.node[103].nic.mac1609_4 	NumInternalContention 	0
scalar MyScenario.node[103].nic.mac1609_4 	totalBusyTime 	0.001393
scalar MyScenario.node[103].veinsmobility 	startTime 	1
scalar MyScenario.node[103].veinsmobility 	totalTime 	29
scalar MyScenario.node[103].veinsmobility 	stopTime 	31
scalar MyScenario.node[103].veinsmobility 	minSpeed 	0.54041642705281
scalar MyScenario.node[103].veinsmobility 	maxSpeed 	13.864539648755
scalar MyScenario.node[103].veinsmobility 	totalDistance 	272.06683774277
scalar MyScenario.node[103].veinsmobility 	totalCO2Emission 	97.819597105198
scalar MyScenario.node[199].appl 	generatedWSMs 	1
scalar MyScenario.node[199].appl 	receivedWSMs 	11
scalar MyScenario.node[199].appl 	generatedBSMs 	0
scalar MyScenario.node[199].appl 	receivedBSMs 	0
scalar MyScenario.node[199].appl 	generatedWSAs 	0
scalar MyScenario.node[199].appl 	receivedWSAs 	0
scalar MyScenario.node[199].nic.phy80211p 	busyTime 	0.00013709090909091
scalar MyScenario.node[199].nic.mac1609_4 	ReceivedUnicastPackets 	0
scalar MyScenario.node[199].nic.mac1609_4 	ReceivedBroadcasts 	11
scalar MyScenario.node[199].nic.mac1609_4 	SentPackets 	1
scalar MyScenario.node[199].nic.mac1609_4 	SNIRLostPackets 	2
scalar MyScenario.node[199].nic.mac1609_4 	RXTXLostPackets 	0
scalar MyScenario.node[199].nic.mac1609_4 	TotalLostPackets 	2
scalar MyScenario.node[199].nic.mac1609_4 	DroppedPacketsInMac 	0
scalar MyScenario.node[199].nic.mac1609_4 	TooLittleTime 	0
scalar MyScenario.node[199].nic.mac1609_4 	TimesIntoBackoff 	1
scalar MyScenario.node[199].nic.mac1609_4 	SlotsBackoff 	3
scalar MyScenario.node[199].nic.mac1609_4 	NumInternalContention 	0
scalar MyScenario.node[199].nic.mac1609_4 	totalBusyTime 	0.003017
scalar MyScenario.node[199].veinsmobility 	startTime 	11
scalar MyScenario.node[199].veinsmobility 	totalTime 	21
scalar MyScenario.node[199].veinsmobility 	stopTime 	33
scalar MyScenario.node[199].veinsmobility 	minSpeed 	6.985704492677
scalar MyScenario.node[199].veinsmobility 	maxSpeed 	13.756497162394
scalar MyScenario.node[199].veinsmobility 	totalDistance 	257.20041427767
scalar MyScenario.node[199].veinsmobility 	totalCO2Emission 	60.546905203392
scalar MyScenario.node[73].appl 	generatedWSMs 	1
scalar MyScenario.node[73].appl 	receivedWSMs 	7
scalar MyScenario.node[73].appl 	generatedBSMs 	0
scalar MyScenario.node[73].appl 	receivedBSMs 	0
scalar MyScenario.node[73].appl 	generatedWSAs 	0
scalar MyScenario.node[73].appl 	receivedWSAs 	0
scalar MyScenario.node[73].nic.phy80211p 	busyTime 	0.00018278787878788
scalar MyScenario.node[73].nic.mac1609_4 	ReceivedUnicastPackets 	0
scalar MyScenario.node[73].nic.mac1609_4 	ReceivedBroadcasts 	7
scalar MyScenario.node[73].nic.mac1609_4 	SentPackets 	1
scalar MyScenario.node[73].nic.mac1609_4 	SNIRLostPackets 	19
scalar MyScenario.node[73].nic.mac1609_4 	RXTXLostPackets 	1
scalar MyScenario.node[73].nic.mac1609_4 	TotalLostPackets 	20
scalar MyScenario.node[73].nic.mac1609_4 	DroppedPacketsInMac 	0
scalar MyScenario.node[73].nic.mac1609_4 	TooLittleTime 	0
scalar MyScenario.node[73].nic.mac1609_4 	TimesIntoBackoff 	1
scalar MyScenario.node[73].nic.mac1609_4 	SlotsBackoff 	0
scalar MyScenario.node[73].nic.mac1609_4 	NumInternalContention 	0
scalar MyScenario.node[73].nic.mac1609_4 	totalBusyTime 	0.003249
scalar MyScenario.node[73].veinsmobility 	startTime 	1
scalar MyScenario.node[73].veinsmobility 	totalTime 	32
scalar MyScenario.node[73].veinsmobility 	stopTime 	34
scalar MyScenario.node[73].veinsmobility 	minSpeed 	1.1441436258939
scalar MyScenario.node[73].veinsmobility 	maxSpeed 	13.739054004895
scalar MyScenario.node[73].veinsmobility 	totalDistance 	283.86063192544
scalar MyScenario.node[73].veinsmobility 	totalCO2Emission 	116.31376598526
scalar MyScenario.node[149].appl 	generatedWSMs 	1
scalar MyScenario.node[149].appl 	receivedWSMs 	7
scalar MyScenario.node[149].appl 	generatedBSMs 	0
scalar MyScenario.node[149].appl 	receivedBSMs 	0
scalar MyScenario.node[149].appl 	generatedWSAs 	0
scalar MyScenario.node[149].appl 	receivedWSAs 	0
scalar MyScenario.node[149].nic.phy80211p 	busyTime 	0.00015466666666667
scalar MyScenario.node[149].nic.mac1609_4 	ReceivedUnicastPackets 	0
scalar MyScenario.node[149].nic.mac1609_4 	ReceivedBroadcasts 	7
scalar MyScenario.node[149].nic.mac1609_4 	SentPackets 	1
scalar MyScenario.node[149].nic.mac1609_4 	SNIRLostPackets 	15
scalar MyScenario.node[149].nic.mac1609_4 	RXTXLostPackets 	0
scalar MyScenario.node[149].nic.mac1609_4 	TotalLostPackets 	15
scalar MyScenario.node[149].nic.mac1609_4 	DroppedPacketsInMac 	0
scalar MyScenario.node[149].nic.mac1609_4 	TooLittleTime 	0
scalar MyScenario.node[149].nic.mac1609_4 	TimesIntoBackoff 	1
scalar MyScenario.node[149].nic.mac1609_4 	SlotsBackoff 	2
scalar MyScenario.node[149].nic.mac1609_4 	NumInternalContention 	0
scalar MyScenario.node[149].nic.mac1609_4 	totalBusyTime 	0.003249
scalar MyScenario.node[149].veinsmobility 	startTime 	1
scalar MyScenario.node[149].veinsmobility 	totalTime 	32
scalar MyScenario.node[149].veinsmobility 	stopTime 	34
scalar MyScenario.node[149].veinsmobility 	minSpeed 	1.6667960691964
scalar MyScenario.node[149].veinsmobility 	maxSpeed 	13.80080207726
scalar MyScenario.node[149].veinsmobility 	totalDistance 	381.02267005027
scalar MyScenario.node[149].veinsmobility 	totalCO2Emission 	92.949265401714
scalar MyScenario.node[35].appl 	generatedWSMs 	0
scalar MyScenario.node[35].appl 	receivedWSMs 	0
scalar MyScenario.node[35].appl 	generatedBSMs 	0
scalar MyScenario.node[35].appl 	receivedBSMs 	0
scalar MyScenario.node[35].appl 	generatedWSAs 	0
scalar MyScenario.node[35].appl 	receivedWSAs 	0
scalar MyScenario.node[35].nic.phy80211p 	busyTime 	0
scalar MyScenario.node[35].nic.mac1609_4 	ReceivedUnicastPackets 	0
scalar MyScenario.node[35].nic.mac1609_4 	ReceivedBroadcasts 	0
scalar MyScenario.node[35].nic.mac1609_4 	SentPackets 	0
scalar MyScenario.node[35].nic.mac1609_4 	SNIRLostPackets 	0
scalar MyScenario.node[35].nic.mac1609_4 	RXTXLostPackets 	0
scalar MyScenario.node[35].nic.mac1609_4 	TotalLostPackets 	0
scalar MyScenario.node[35].nic.mac1609_4 	DroppedPacketsInMac 	0
scalar MyScenario.node[35].nic.mac1609_4 	TooLittleTime 	0
scalar MyScenario.node[35].nic.mac1609_4 	TimesIntoBackoff 	0
scalar MyScenario.node[35].nic.mac1609_4 	SlotsBackoff 	0
scalar MyScenario.node[35].nic.mac1609_4 	NumInternalContention 	0
scalar MyScenario.node[35].nic.mac1609_4 	totalBusyTime 	0
scalar MyScenario.node[35].veinsmobility 	startTime 	1
scalar MyScenario.node[35].veinsmobility 	totalTime 	33
scalar MyScenario.node[35].veinsmobility 	stopTime 	35
scalar MyScenario.node[35].veinsmobility 	minSpeed 	2.3035150312586
scalar MyScenario.node[35].veinsmobility 	maxSpeed 	13.893825750239
scalar MyScenario.node[35].veinsmobility 	totalDistance 	370.77493465618
scalar MyScenario.node[35].veinsmobility 	totalCO2Emission 	112.90821027811
scalar MyScenario.node[5].appl 	generatedWSMs 	1
scalar MyScenario.node[5].appl 	receivedWSMs 	6
scalar MyScenario.node[5].appl 	generatedBSMs 	0
scalar MyScenario.node[5].appl 	receivedBSMs 	0
scalar MyScenario.node[5].appl 	generatedWSAs 	0
scalar MyScenario.node[5].appl 	receivedWSAs 	0
scalar MyScenario.node[5].nic.phy80211p 	busyTime 	0.00014329411764706
scalar MyScenario.node[5].nic.mac1609_4 	ReceivedUnicastPackets 	0
scalar MyScenario.node[5].nic.mac1609_4 	ReceivedBroadcasts 	6
scalar MyScenario.node[5].nic.mac1609_4 	SentPackets 	1
scalar MyScenario.node[5].nic.mac1609_4 	SNIRLostPackets 	15
scalar MyScenario.node[5].nic.mac1609_4 	RXTXLostPackets 	13
scalar MyScenario.node[5].nic.mac1609_4 	TotalLostPackets 	28
scalar MyScenario.node[5].nic.mac1609_4 	DroppedPacketsInMac 	0
scalar MyScenario.node[5].nic.mac1609_4 	TooLittleTime 	0
scalar MyScenario.node[5].nic.mac1609_4 	TimesIntoBackoff 	1
scalar MyScenario.node[5].nic.mac1609_4 	SlotsBackoff 	1
scalar MyScenario.node[5].nic.mac1609_4 	NumInternalContention 	0
scalar MyScenario.node[5].nic.mac1609_4 	totalBusyTime 	0.002553
scalar MyScenario.node[5].veinsmobility 	startTime 	1
scalar MyScenario.node[5].veinsmobility 	totalTime 	33
scalar MyScenario.node[5].veinsmobility 	stopTime 	35
scalar MyScenario.node[5].veinsmobility 	minSpeed 	1.6421129219932
scalar MyScenario.node[5].veinsmobility 	maxSpeed 	13.895705082384
scalar MyScenario.node[5].veinsmobility 	totalDistance 	377.51798470741
scalar MyScenario.node[5].veinsmobility 	totalCO2Emission 	112.22655883411
scalar MyScenario.node[59].appl 	generatedWSMs 	0
scalar MyScenario.node[59].appl 	receivedWSMs 	0
scalar MyScenario.node[59].appl 	generatedBSMs 	0
scalar MyScenario.node[59].appl 	receivedBSMs 	0
scalar MyScenario.node[59].appl 	generatedWSAs 	0
scalar MyScenario.node[59].appl 	receivedWSAs 	0
scalar MyScenario.node[59].nic.phy80211p 	busyTime 	0
scalar MyScenario.node[59].nic.mac1609_4 	ReceivedUnicastPackets 	0
scalar MyScenario.node[59].nic.mac1609_4 	ReceivedBroadcasts 	0
scalar MyScenario.node[59].nic.mac1609_4 	SentPackets 	0
scalar MyScenario.node[59].nic.mac1609_4 	SNIRLostPackets 	0
scalar MyScenario.node[59].nic.mac1609_4 	RXTXLostPackets 	0
scalar MyScenario.node[59].nic.mac1609_4 	TotalLostPackets 	0
scalar MyScenario.node[59].nic.mac1609_4 	DroppedPacketsInMac 	0
scalar MyScenario.node[59].nic.mac1609_4 	TooLittleTime 	0
scalar MyScenario.node[59].nic.mac1609_4 	TimesIntoBackoff 	0
scalar MyScenario.node[59].nic.mac1609_4 	SlotsBackoff 	0
scalar MyScenario.node[59].nic.mac1609_4 	NumInternalContention 	0
scalar MyScenario.node[59].nic.mac1609_4 	totalBusyTime 	0
scalar MyScenario.node[59].veinsmobility 	startTime 	1
scalar MyScenario.node[59].veinsmobility 	totalTime 	34
scalar MyScenario.node[59].veinsmobility 	stopTime 	36
scalar MyScenario.node[59].veinsmobility 	minSpeed 	2.3207553402986
scalar MyScenario.node[59].veinsmobility 	maxSpeed 	13.591126175132
scalar MyScenario.node[59].veinsmobility 	totalDistance 	368.12700318088
scalar MyScenario.node[59].veinsmobility 	totalCO2Emission 	125.96807793855
scalar MyScenario.node[16].appl 	generatedWSMs 	0
scalar MyScenario.node[16].appl 	receivedWSMs 	0
scalar MyScenario.node[16].appl 	generatedBSMs 	0
scalar MyScenario.node[16].appl 	receivedBSMs 	0
scalar MyScenario.node[16].appl 	generatedWSAs 	0
scalar MyScenario.node[16].appl 	receivedWSAs 	0
scalar MyScenario.node[16].nic.phy80211p 	busyTime 	1.9885714285714e-05
scalar MyScenario.node[16].nic.mac1609_4 	ReceivedUnicastPackets 	0
scalar MyScenario.node[16].nic.mac1609_4 	ReceivedBroadcasts 	0
scalar MyScenario.node[16].nic.mac1609_4 	SentPackets 	0
scalar MyScenario.node[16].nic.mac1609_4 	SNIRLostPackets 	3
scalar MyScenario.node[16].nic.mac1609_4 	RXTXLostPackets 	0
scalar MyScenario.node[16].nic.mac1609_4 	TotalLostPackets 	3
scalar MyScenario.node[16].nic.mac1609_4 	DroppedPacketsInMac 	0
scalar MyScenario.node[16].nic.mac1609_4 	TooLittleTime 	0
scalar MyScenario.node[16].nic.mac1609_4 	TimesIntoBackoff 	0
scalar MyScenario.node[16].nic.mac1609_4 	SlotsBackoff 	0
scalar MyScenario.node[16].nic.mac1609_4 	NumInternalContention 	0
scalar MyScenario.node[16].nic.mac1609_4 	totalBusyTime 	0.000464
scalar MyScenario.node[16].veinsmobility 	startTime 	1
scalar MyScenario.node[16].veinsmobility 	totalTime 	34
scalar MyScenario.node[16].veinsmobility 	stopTime 	36
scalar MyScenario.node[16].veinsmobility 	minSpeed 	1.3652166988468
scalar MyScenario.node[16].veinsmobility 	maxSpeed 	13.758261124184
scalar MyScenario.node[16].veinsmobility 	totalDistance 	369.18290228844
scalar MyScenario.node[16].veinsmobility 	totalCO2Emission 	100.26006991142
scalar MyScenario.node[99].appl 	generatedWSMs 	1
scalar MyScenario.node[99].appl 	receivedWSMs 	2
scalar MyScenario.node[99].appl 	generatedBSMs 	0
scalar MyScenario.node[99].appl 	receivedBSMs 	0
scalar MyScenario.node[99].appl 	generatedWSAs 	0
scalar MyScenario.node[99].appl 	receivedWSAs 	0
scalar MyScenario.node[99].nic.phy80211p 	busyTime 	5.8e-05
scalar MyScenario.node[99].nic.mac1609_4 	ReceivedUnicastPackets 	0
scalar MyScenario.node[99].nic.mac1609_4 	ReceivedBroadcasts 	2
scalar MyScenario.node[99].nic.mac1609_4 	SentPackets 	1
scalar MyScenario.node[99].nic.mac1609_4 	SNIRLostPackets 	8
scalar MyScenario.node[99].nic.mac1609_4 	RXTXLostPackets 	12
scalar MyScenario.node[99].nic.mac1609_4 	TotalLostPackets 	20
scalar MyScenario.node[99].nic.mac1609_4 	DroppedPacketsInMac 	0
scalar MyScenario.node[99].nic.mac1609_4 	TooLittleTime 	0
scalar MyScenario.node[99].nic.mac1609_4 	TimesIntoBackoff 	1
scalar MyScenario.node[99].nic.mac1609_4 	SlotsBackoff 	3
scalar MyScenario.node[99].nic.mac1609_4 	NumInternalContention 	0
scalar MyScenario.node[99].nic.mac1609_4 	totalBusyTime 	0.001393
scalar MyScenario.node[99].veinsmobility 	startTime 	1
scalar MyScenario.node[99].veinsmobility 	totalTime 	39
scalar MyScenario.node[99].veinsmobility 	stopTime 	41
scalar MyScenario.node[99].veinsmobility 	minSpeed 	0.2980653095559
scalar MyScenario.node[99].veinsmobility 	maxSpeed 	13.854654147686
scalar MyScenario.node[99].veinsmobility 	totalDistance 	370.97934209432
scalar MyScenario.node[99].veinsmobility 	totalCO2Emission 	114.5294598064
scalar MyScenario.node[77].appl 	generatedWSMs 	1
scalar MyScenario.node[77].appl 	receivedWSMs 	5
scalar MyScenario.node[77].appl 	generatedBSMs 	0
scalar MyScenario.node[77].appl 	receivedBSMs 	0
scalar MyScenario.node[77].appl 	generatedWSAs 	0
scalar MyScenario.node[77].appl 	receivedWSAs 	0
scalar MyScenario.node[77].nic.phy80211p 	busyTime 	8.12e-05
scalar MyScenario.node[77].nic.mac1609_4 	ReceivedUnicastPackets 	0
scalar MyScenario.node[77].nic.mac1609_4 	ReceivedBroadcasts 	5
scalar MyScenario.node[77].nic.mac1609_4 	SentPackets 	1
scalar MyScenario.node[77].nic.mac1609_4 	SNIRLostPackets 	9
scalar MyScenario.node[77].nic.mac1609_4 	RXTXLostPackets 	12
scalar MyScenario.node[77].nic.mac1609_4 	TotalLostPackets 	21
scalar MyScenario.node[77].nic.mac1609_4 	DroppedPacketsInMac 	0
scalar MyScenario.node[77].nic.mac1609_4 	TooLittleTime 	0
scalar MyScenario.node[77].nic.mac1609_4 	TimesIntoBackoff 	1
scalar MyScenario.node[77].nic.mac1609_4 	SlotsBackoff 	3
scalar MyScenario.node[77].nic.mac1609_4 	NumInternalContention 	0
scalar MyScenario.node[77].nic.mac1609_4 	totalBusyTime 	0.002321163185
scalar MyScenario.node[77].veinsmobility 	startTime 	1
scalar MyScenario.node[77].veinsmobility 	totalTime 	39
scalar MyScenario.node[77].veinsmobility 	stopTime 	41
scalar MyScenario.node[77].veinsmobility 	minSpeed 	2.0447021616157
scalar MyScenario.node[77].veinsmobility 	maxSpeed 	13.779751004861
scalar MyScenario.node[77].veinsmobility 	totalDistance 	472.49637246155
scalar MyScenario.node[77].veinsmobility 	totalCO2Emission 	111.20315830411
scalar MyScenario.node[157].appl 	generatedWSMs 	1
scalar MyScenario.node[157].appl 	receivedWSMs 	1
scalar MyScenario.node[157].appl 	generatedBSMs 	0
scalar MyScenario.node[157].appl 	receivedBSMs 	0
scalar MyScenario.node[157].appl 	generatedWSAs 	0
scalar MyScenario.node[157].appl 	receivedWSAs 	0
scalar MyScenario.node[157].nic.phy80211p 	busyTime 	1.8810810810811e-05
scalar MyScenario.node[157].nic.mac1609_4 	ReceivedUnicastPackets 	0
scalar MyScenario.node[157].nic.mac1609_4 	ReceivedBroadcasts 	1
scalar MyScenario.node[157].nic.mac1609_4 	SentPackets 	1
scalar MyScenario.node[157].nic.mac1609_4 	SNIRLostPackets 	2
scalar MyScenario.node[157].nic.mac1609_4 	RXTXLostPackets 	11
scalar MyScenario.node[157].nic.mac1609_4 	TotalLostPackets 	13
scalar MyScenario.node[157].nic.mac1609_4 	DroppedPacketsInMac 	0
scalar MyScenario.node[157].nic.mac1609_4 	TooLittleTime 	0
scalar MyScenario.node[157].nic.mac1609_4 	TimesIntoBackoff 	1
scalar MyScenario.node[157].nic.mac1609_4 	SlotsBackoff 	0
scalar MyScenario.node[157].nic.mac1609_4 	NumInternalContention 	0
scalar MyScenario.node[157].nic.mac1609_4 	totalBusyTime 	0.000929
scalar MyScenario.node[157].veinsmobility 	startTime 	4
scalar MyScenario.node[157].veinsmobility 	totalTime 	36
scalar MyScenario.node[157].veinsmobility 	stopTime 	41
scalar MyScenario.node[157].veinsmobility 	minSpeed 	2.2631841337541
scalar MyScenario.node[157].veinsmobility 	maxSpeed 	13.747296208702
scalar MyScenario.node[157].veinsmobility 	totalDistance 	369.86861063127
scalar MyScenario.node[157].veinsmobility 	totalCO2Emission 	126.99835364007
scalar MyScenario.node[132].appl 	generatedWSMs 	1
scalar MyScenario.node[132].appl 	receivedWSMs 	2
scalar MyScenario.node[132].appl 	generatedBSMs 	0
scalar MyScenario.node[132].appl 	receivedBSMs 	0
scalar MyScenario.node[132].appl 	generatedWSAs 	0
scalar MyScenario.node[132].appl 	receivedWSAs 	0
scalar MyScenario.node[132].nic.phy80211p 	busyTime 	6.790243902439e-05
scalar MyScenario.node[132].nic.mac1609_4 	ReceivedUnicastPackets 	0
scalar MyScenario.node[132].nic.mac1609_4 	ReceivedBroadcasts 	2
scalar MyScenario.node[132].nic.mac1609_4 	SentPackets 	1
scalar MyScenario.node[132].nic.mac1609_4 	SNIRLostPackets 	10
scalar MyScenario.node[132].nic.mac1609_4 	RXTXLostPackets 	11
scalar MyScenario.node[132].nic.mac1609_4 	TotalLostPackets 	21
scalar MyScenario.node[132].nic.mac1609_4 	DroppedPacketsInMac 	0
scalar MyScenario.node[132].nic.mac1609_4 	TooLittleTime 	0
scalar MyScenario.node[132].nic.mac1609_4 	TimesIntoBackoff 	1
scalar MyScenario.node[132].nic.mac1609_4 	SlotsBackoff 	1
scalar MyScenario.node[132].nic.mac1609_4 	NumInternalContention 	0
scalar MyScenario.node[132].nic.mac1609_4 	totalBusyTime 	0.001161
scalar MyScenario.node[132].veinsmobility 	startTime 	1
scalar MyScenario.node[132].veinsmobility 	totalTime 	40
scalar MyScenario.node[132].veinsmobility 	stopTime 	42
scalar MyScenario.node[132].veinsmobility 	minSpeed 	2.5112010973739
scalar MyScenario.node[132].veinsmobility 	maxSpeed 	13.881461110013
scalar MyScenario.node[132].veinsmobility 	totalDistance 	456.11089487288
scalar MyScenario.node[132].veinsmobility 	totalCO2Emission 	135.69514396748
scalar MyScenario.node[91].appl 	generatedWSMs 	1
scalar MyScenario.node[91].appl 	receivedWSMs 	7
scalar MyScenario.node[91].appl 	generatedBSMs 	0
scalar MyScenario.node[91].appl 	receivedBSMs 	0
scalar MyScenario.node[91].appl 	generatedWSAs 	0
scalar MyScenario.node[91].appl 	receivedWSAs 	0
scalar MyScenario.node[91].nic.phy80211p 	busyTime 	0.00016571428571429
scalar MyScenario.node[91].nic.mac1609_4 	ReceivedUnicastPackets 	0
scalar MyScenario.node[91].nic.mac1609_4 	ReceivedBroadcasts 	7
scalar MyScenario.node[91].nic.mac1609_4 	SentPackets 	1
scalar MyScenario.node[91].nic.mac1609_4 	SNIRLostPackets 	23
scalar MyScenario.node[91].nic.mac1609_4 	RXTXLostPackets 	9
scalar MyScenario.node[91].nic.mac1609_4 	TotalLostPackets 	32
scalar MyScenario.node[91].nic.mac1609_4 	DroppedPacketsInMac 	0
scalar MyScenario.node[91].nic.mac1609_4 	TooLittleTime 	0
scalar MyScenario.node[91].nic.mac1609_4 	TimesIntoBackoff 	1
scalar MyScenario.node[91].nic.mac1609_4 	SlotsBackoff 	1
scalar MyScenario.node[91].nic.mac1609_4 	NumInternalContention 	0
scalar MyScenario.node[91].nic.mac1609_4 	totalBusyTime 	0.003713
scalar MyScenario.node[91].veinsmobility 	startTime 	1
scalar MyScenario.node[91].veinsmobility 	totalTime 	41
scalar MyScenario.node[91].veinsmobility 	stopTime 	43
scalar MyScenario.node[91].veinsmobility 	minSpeed 	2.0247857644921
scalar MyScenario.node[91].veinsmobility 	maxSpeed 	13.883156419778
scalar MyScenario.node[91].veinsmobility 	totalDistance 	474.77224687856
scalar MyScenario.node[91].veinsmobility 	totalCO2Emission 	125.22794042264
scalar MyScenario.node[166].appl 	generatedWSMs 	1
scalar MyScenario.node[166].appl 	receivedWSMs 	4
scalar MyScenario.node[166].appl 	generatedBSMs 	0
scalar MyScenario.node[166].appl 	receivedBSMs 	0
scalar MyScenario.node[166].appl 	generatedWSAs 	0
scalar MyScenario.node[166].appl 	receivedWSAs 	0
scalar MyScenario.node[166].nic.phy80211p 	busyTime 	0.00014712195121951
scalar MyScenario.node[166].nic.mac1609_4 	ReceivedUnicastPackets 	0
scalar MyScenario.node[166].nic.mac1609_4 	ReceivedBroadcasts 	4
scalar MyScenario.node[166].nic.mac1609_4 	SentPackets 	1
scalar MyScenario.node[166].nic.mac1609_4 	SNIRLostPackets 	22
scalar MyScenario.node[166].nic.mac1609_4 	RXTXLostPackets 	3
scalar MyScenario.node[166].nic.mac1609_4 	TotalLostPackets 	25
scalar MyScenario.node[166].nic.mac1609_4 	DroppedPacketsInMac 	0
scalar MyScenario.node[166].nic.mac1609_4 	TooLittleTime 	0
scalar MyScenario.node[166].nic.mac1609_4 	TimesIntoBackoff 	1
scalar MyScenario.node[166].nic.mac1609_4 	SlotsBackoff 	0
scalar MyScenario.node[166].nic.mac1609_4 	NumInternalContention 	0
scalar MyScenario.node[166].nic.mac1609_4 	totalBusyTime 	0.002321013685
scalar MyScenario.node[166].veinsmobility 	startTime 	4
scalar MyScenario.node[166].veinsmobility 	totalTime 	40
scalar MyScenario.node[166].veinsmobility 	stopTime 	45
scalar MyScenario.node[166].veinsmobility 	minSpeed 	0.013310565439427
scalar MyScenario.node[166].veinsmobility 	maxSpeed 	13.859463298973
scalar MyScenario.node[166].veinsmobility 	totalDistance 	380.70691924077
scalar MyScenario.node[166].veinsmobility 	totalCO2Emission 	136.90643040395
scalar MyScenario.node[185].appl 	generatedWSMs 	1
scalar MyScenario.node[185].appl 	receivedWSMs 	17
scalar MyScenario.node[185].appl 	generatedBSMs 	0
scalar MyScenario.node[185].appl 	receivedBSMs 	0
scalar MyScenario.node[185].appl 	generatedWSAs 	0
scalar MyScenario.node[185].appl 	receivedWSAs 	0
scalar MyScenario.node[185].nic.phy80211p 	busyTime 	0.00014146341463415
scalar MyScenario.node[185].nic.mac1609_4 	ReceivedUnicastPackets 	0
scalar MyScenario.node[185].nic.mac1609_4 	ReceivedBroadcasts 	17
scalar MyScenario.node[185].nic.mac1609_4 	SentPackets 	1
scalar MyScenario.node[185].nic.mac1609_4 	SNIRLostPackets 	8
scalar MyScenario.node[185].nic.mac1609_4 	RXTXLostPackets 	8
scalar MyScenario.node[185].nic.mac1609_4 	TotalLostPackets 	16
scalar MyScenario.node[185].nic.mac1609_4 	DroppedPacketsInMac 	0
scalar MyScenario.node[185].nic.mac1609_4 	TooLittleTime 	0
scalar MyScenario.node[185].nic.mac1609_4 	TimesIntoBackoff 	1
scalar MyScenario.node[185].nic.mac1609_4 	SlotsBackoff 	0
scalar MyScenario.node[185].nic.mac1609_4 	NumInternalContention 	0
scalar MyScenario.node[185].nic.mac1609_4 	totalBusyTime 	0.004409032125
scalar MyScenario.node[185].veinsmobility 	startTime 	4
scalar MyScenario.node[185].veinsmobility 	totalTime 	40
scalar MyScenario.node[185].veinsmobility 	stopTime 	45
scalar MyScenario.node[185].veinsmobility 	minSpeed 	0.0013552993817074
scalar MyScenario.node[185].veinsmobility 	maxSpeed 	13.891889935918
scalar MyScenario.node[185].veinsmobility 	totalDistance 	368.2817213349
scalar MyScenario.node[185].veinsmobility 	totalCO2Emission 	127.02291305357
scalar MyScenario.node[72].appl 	generatedWSMs 	0
scalar MyScenario.node[72].appl 	receivedWSMs 	0
scalar MyScenario.node[72].appl 	generatedBSMs 	0
scalar MyScenario.node[72].appl 	receivedBSMs 	0
scalar MyScenario.node[72].appl 	generatedWSAs 	0
scalar MyScenario.node[72].appl 	receivedWSAs 	0
scalar MyScenario.node[72].nic.phy80211p 	busyTime 	7.9090909090909e-05
scalar MyScenario.node[72].nic.mac1609_4 	ReceivedUnicastPackets 	0
scalar MyScenario.node[72].nic.mac1609_4 	ReceivedBroadcasts 	0
scalar MyScenario.node[72].nic.mac1609_4 	SentPackets 	0
scalar MyScenario.node[72].nic.mac1609_4 	SNIRLostPackets 	15
scalar MyScenario.node[72].nic.mac1609_4 	RXTXLostPackets 	0
scalar MyScenario.node[72].nic.mac1609_4 	TotalLostPackets 	15
scalar MyScenario.node[72].nic.mac1609_4 	DroppedPacketsInMac 	0
scalar MyScenario.node[72].nic.mac1609_4 	TooLittleTime 	0
scalar MyScenario.node[72].nic.mac1609_4 	TimesIntoBackoff 	0
scalar MyScenario.node[72].nic.mac1609_4 	SlotsBackoff 	0
scalar MyScenario.node[72].nic.mac1609_4 	NumInternalContention 	0
scalar MyScenario.node[72].nic.mac1609_4 	totalBusyTime 	0.000928
scalar MyScenario.node[72].veinsmobility 	startTime 	1
scalar MyScenario.node[72].veinsmobility 	totalTime 	43
scalar MyScenario.node[72].veinsmobility 	stopTime 	45
scalar MyScenario.node[72].veinsmobility 	minSpeed 	2.3449559177738
scalar MyScenario.node[72].veinsmobility 	maxSpeed 	13.764355719811
scalar MyScenario.node[72].veinsmobility 	totalDistance 	458.87453525478
scalar MyScenario.node[72].veinsmobility 	totalCO2Emission 	157.64784925886
scalar MyScenario.node[200].appl 	generatedWSMs 	1
scalar MyScenario.node[200].appl 	receivedWSMs 	1
scalar MyScenario.node[200].appl 	generatedBSMs 	0
scalar MyScenario.node[200].appl 	receivedBSMs 	0
scalar MyScenario.node[200].appl 	generatedWSAs 	0
scalar MyScenario.node[200].appl 	receivedWSAs 	0
scalar MyScenario.node[200].nic.phy80211p 	busyTime 	4.7764705882353e-05
scalar MyScenario.node[200].nic.mac1609_4 	ReceivedUnicastPackets 	0
scalar MyScenario.node[200].nic.mac1609_4 	ReceivedBroadcasts 	1
scalar MyScenario.node[200].nic.mac1609_4 	SentPackets 	1
scalar MyScenario.node[200].nic.mac1609_4 	SNIRLostPackets 	6
scalar MyScenario.node[200].nic.mac1609_4 	RXTXLostPackets 	9
scalar MyScenario.node[200].nic.mac1609_4 	TotalLostPackets 	15
scalar MyScenario.node[200].nic.mac1609_4 	DroppedPacketsInMac 	0
scalar MyScenario.node[200].nic.mac1609_4 	TooLittleTime 	0
scalar MyScenario.node[200].nic.mac1609_4 	TimesIntoBackoff 	1
scalar MyScenario.node[200].nic.mac1609_4 	SlotsBackoff 	1
scalar MyScenario.node[200].nic.mac1609_4 	NumInternalContention 	0
scalar MyScenario.node[200].nic.mac1609_4 	totalBusyTime 	0.000929
scalar MyScenario.node[200].veinsmobility 	startTime 	11
scalar MyScenario.node[200].veinsmobility 	totalTime 	33
scalar MyScenario.node[200].veinsmobility 	stopTime 	45
scalar MyScenario.node[200].veinsmobility 	minSpeed 	4.6031665355274
scalar MyScenario.node[200].veinsmobility 	maxSpeed 	13.798887416325
scalar MyScenario.node[200].veinsmobility 	totalDistance 	378.68176112979
scalar MyScenario.node[200].veinsmobility 	totalCO2Emission 	106.90985427179
scalar MyScenario.node[161].appl 	generatedWSMs 	1
scalar MyScenario.node[161].appl 	receivedWSMs 	11
scalar MyScenario.node[161].appl 	generatedBSMs 	0
scalar MyScenario.node[161].appl 	receivedBSMs 	0
scalar MyScenario.node[161].appl 	generatedWSAs 	0
scalar MyScenario.node[161].appl 	receivedWSAs 	0
scalar MyScenario.node[161].nic.phy80211p 	busyTime 	0.00020990476190476
scalar MyScenario.node[161].nic.mac1609_4 	ReceivedUnicastPackets 	0
scalar MyScenario.node[161].nic.mac1609_4 	ReceivedBroadcasts 	11
scalar MyScenario.node[161].nic.mac1609_4 	SentPackets 	1
scalar MyScenario.node[161].nic.mac1609_4 	SNIRLostPackets 	27
scalar MyScenario.node[161].nic.mac1609_4 	RXTXLostPackets 	0
scalar MyScenario.node[161].nic.mac1609_4 	TotalLostPackets 	27
scalar MyScenario.node[161].nic.mac1609_4 	DroppedPacketsInMac 	0
scalar MyScenario.node[161].nic.mac1609_4 	TooLittleTime 	0
scalar MyScenario.node[161].nic.mac1609_4 	TimesIntoBackoff 	1
scalar MyScenario.node[161].nic.mac1609_4 	SlotsBackoff 	2
scalar MyScenario.node[161].nic.mac1609_4 	NumInternalContention 	0
scalar MyScenario.node[161].nic.mac1609_4 	totalBusyTime 	0.003481
scalar MyScenario.node[161].veinsmobility 	startTime 	4
scalar MyScenario.node[161].veinsmobility 	totalTime 	41
scalar MyScenario.node[161].veinsmobility 	stopTime 	46
scalar MyScenario.node[161].veinsmobility 	minSpeed 	1.8288193853805
scalar MyScenario.node[161].veinsmobility 	maxSpeed 	13.850781378848
scalar MyScenario.node[161].veinsmobility 	totalDistance 	473.93074842917
scalar MyScenario.node[161].veinsmobility 	totalCO2Emission 	131.65363214136
scalar MyScenario.node[68].appl 	generatedWSMs 	1
scalar MyScenario.node[68].appl 	receivedWSMs 	8
scalar MyScenario.node[68].appl 	generatedBSMs 	0
scalar MyScenario.node[68].appl 	receivedBSMs 	0
scalar MyScenario.node[68].appl 	generatedWSAs 	0
scalar MyScenario.node[68].appl 	receivedWSAs 	0
scalar MyScenario.node[68].nic.phy80211p 	busyTime 	0.00011857777777778
scalar MyScenario.node[68].nic.mac1609_4 	ReceivedUnicastPackets 	0
scalar MyScenario.node[68].nic.mac1609_4 	ReceivedBroadcasts 	8
scalar MyScenario.node[68].nic.mac1609_4 	SentPackets 	1
scalar MyScenario.node[68].nic.mac1609_4 	SNIRLostPackets 	15
scalar MyScenario.node[68].nic.mac1609_4 	RXTXLostPackets 	2
scalar MyScenario.node[68].nic.mac1609_4 	TotalLostPackets 	17
scalar MyScenario.node[68].nic.mac1609_4 	DroppedPacketsInMac 	0
scalar MyScenario.node[68].nic.mac1609_4 	TooLittleTime 	0
scalar MyScenario.node[68].nic.mac1609_4 	TimesIntoBackoff 	1
scalar MyScenario.node[68].nic.mac1609_4 	SlotsBackoff 	1
scalar MyScenario.node[68].nic.mac1609_4 	NumInternalContention 	0
scalar MyScenario.node[68].nic.mac1609_4 	totalBusyTime 	0.003249
scalar MyScenario.node[68].veinsmobility 	startTime 	1
scalar MyScenario.node[68].veinsmobility 	totalTime 	44
scalar MyScenario.node[68].veinsmobility 	stopTime 	46
scalar MyScenario.node[68].veinsmobility 	minSpeed 	0.0086168973011179
scalar MyScenario.node[68].veinsmobility 	maxSpeed 	13.862737386767
scalar MyScenario.node[68].veinsmobility 	totalDistance 	370.22081563724
scalar MyScenario.node[68].veinsmobility 	totalCO2Emission 	144.05592393668
scalar MyScenario.node[70].appl 	generatedWSMs 	1
scalar MyScenario.node[70].appl 	receivedWSMs 	12
scalar MyScenario.node[70].appl 	generatedBSMs 	0
scalar MyScenario.node[70].appl 	receivedBSMs 	0
scalar MyScenario.node[70].appl 	generatedWSAs 	0
scalar MyScenario.node[70].appl 	receivedWSAs 	0
scalar MyScenario.node[70].nic.phy80211p 	busyTime 	0.00019075555555556
scalar MyScenario.node[70].nic.mac1609_4 	ReceivedUnicastPackets 	0
scalar MyScenario.node[70].nic.mac1609_4 	ReceivedBroadcasts 	12
scalar MyScenario.node[70].nic.mac1609_4 	SentPackets 	1
scalar MyScenario.node[70].nic.mac1609_4 	SNIRLostPackets 	25
scalar MyScenario.node[70].nic.mac1609_4 	RXTXLostPackets 	14
scalar MyScenario.node[70].nic.mac1609_4 	TotalLostPackets 	39
scalar MyScenario.node[70].nic.mac1609_4 	DroppedPacketsInMac 	0
scalar MyScenario.node[70].nic.mac1609_4 	TooLittleTime 	0
scalar MyScenario.node[70].nic.mac1609_4 	TimesIntoBackoff 	1
scalar MyScenario.node[70].nic.mac1609_4 	SlotsBackoff 	3
scalar MyScenario.node[70].nic.mac1609_4 	NumInternalContention 	0
scalar MyScenario.node[70].nic.mac1609_4 	totalBusyTime 	0.004177089418
scalar MyScenario.node[70].veinsmobility 	startTime 	1
scalar MyScenario.node[70].veinsmobility 	totalTime 	44
scalar MyScenario.node[70].veinsmobility 	stopTime 	46
scalar MyScenario.node[70].veinsmobility 	minSpeed 	0.31863721279269
scalar MyScenario.node[70].veinsmobility 	maxSpeed 	13.831674716816
scalar MyScenario.node[70].veinsmobility 	totalDistance 	470.54498697395
scalar MyScenario.node[70].veinsmobility 	totalCO2Emission 	131.40755150669
scalar MyScenario.node[6].appl 	generatedWSMs 	1
scalar MyScenario.node[6].appl 	receivedWSMs 	1
scalar MyScenario.node[6].appl 	generatedBSMs 	0
scalar MyScenario.node[6].appl 	receivedBSMs 	0
scalar MyScenario.node[6].appl 	generatedWSAs 	0
scalar MyScenario.node[6].appl 	receivedWSAs 	0
scalar MyScenario.node[6].nic.phy80211p 	busyTime 	1.0086956521739e-05
scalar MyScenario.node[6].nic.mac1609_4 	ReceivedUnicastPackets 	0
scalar MyScenario.node[6].nic.mac1609_4 	ReceivedBroadcasts 	1
scalar MyScenario.node[6].nic.mac1609_4 	SentPackets 	1
scalar MyScenario.node[6].nic.mac1609_4 	SNIRLostPackets 	1
scalar MyScenario.node[6].nic.mac1609_4 	RXTXLostPackets 	11
scalar MyScenario.node[6].nic.mac1609_4 	TotalLostPackets 	12
scalar MyScenario.node[6].nic.mac1609_4 	DroppedPacketsInMac 	0
scalar MyScenario.node[6].nic.mac1609_4 	TooLittleTime 	0
scalar MyScenario.node[6].nic.mac1609_4 	TimesIntoBackoff 	1
scalar MyScenario.node[6].nic.mac1609_4 	SlotsBackoff 	0
scalar MyScenario.node[6].nic.mac1609_4 	NumInternalContention 	0
scalar MyScenario.node[6].nic.mac1609_4 	totalBusyTime 	0.000697
scalar MyScenario.node[6].veinsmobility 	startTime 	1
scalar MyScenario.node[6].veinsmobility 	totalTime 	45
scalar MyScenario.node[6].veinsmobility 	stopTime 	47
scalar MyScenario.node[6].veinsmobility 	minSpeed 	0.84997095297205
scalar MyScenario.node[6].veinsmobility 	maxSpeed 	13.877246936481
scalar MyScenario.node[6].veinsmobility 	totalDistance 	472.97646402794
scalar MyScenario.node[6].veinsmobility 	totalCO2Emission 	148.59380405051
scalar MyScenario.node[120].appl 	generatedWSMs 	1
scalar MyScenario.node[120].appl 	receivedWSMs 	9
scalar MyScenario.node[120].appl 	generatedBSMs 	0
scalar MyScenario.node[120].appl 	receivedBSMs 	0
scalar MyScenario.node[120].appl 	generatedWSAs 	0
scalar MyScenario.node[120].appl 	receivedWSAs 	0
scalar MyScenario.node[120].nic.phy80211p 	busyTime 	0.00010591304347826
scalar MyScenario.node[120].nic.mac1609_4 	ReceivedUnicastPackets 	0
scalar MyScenario.node[120].nic.mac1609_4 	ReceivedBroadcasts 	9
scalar MyScenario.node[120].nic.mac1609_4 	SentPackets 	1
scalar MyScenario.node[120].nic.mac1609_4 	SNIRLostPackets 	12
scalar MyScenario.node[120].nic.mac1609_4 	RXTXLostPackets 	5
scalar MyScenario.node[120].nic.mac1609_4 	TotalLostPackets 	17
scalar MyScenario.node[120].nic.mac1609_4 	DroppedPacketsInMac 	0
scalar MyScenario.node[120].nic.mac1609_4 	TooLittleTime 	0
scalar MyScenario.node[120].nic.mac1609_4 	TimesIntoBackoff 	1
scalar MyScenario.node[120].nic.mac1609_4 	SlotsBackoff 	0
scalar MyScenario.node[120].nic.mac1609_4 	NumInternalContention 	0
scalar MyScenario.node[120].nic.mac1609_4 	totalBusyTime 	0.003249
scalar MyScenario.node[120].veinsmobility 	startTime 	1
scalar MyScenario.node[120].veinsmobility 	totalTime 	45
scalar MyScenario.node[120].veinsmobility 	stopTime 	47
scalar MyScenario.node[120].veinsmobility 	minSpeed 	0.6882216391632
scalar MyScenario.node[120].veinsmobility 	maxSpeed 	13.888811502792
scalar MyScenario.node[120].veinsmobility 	totalDistance 	465.39090329353
scalar MyScenario.node[120].veinsmobility 	totalCO2Emission 	150.16486020812
scalar MyScenario.node[189].appl 	generatedWSMs 	1
scalar MyScenario.node[189].appl 	receivedWSMs 	1
scalar MyScenario.node[189].appl 	generatedBSMs 	0
scalar MyScenario.node[189].appl 	receivedBSMs 	0
scalar MyScenario.node[189].appl 	generatedWSAs 	0
scalar MyScenario.node[189].appl 	receivedWSAs 	0
scalar MyScenario.node[189].nic.phy80211p 	busyTime 	3.1636363636364e-05
scalar MyScenario.node[189].nic.mac1609_4 	ReceivedUnicastPackets 	0
scalar MyScenario.node[189].nic.mac1609_4 	ReceivedBroadcasts 	1
scalar MyScenario.node[189].nic.mac1609_4 	SentPackets 	1
scalar MyScenario.node[189].nic.mac1609_4 	SNIRLostPackets 	5
scalar MyScenario.node[189].nic.mac1609_4 	RXTXLostPackets 	8
scalar MyScenario.node[189].nic.mac1609_4 	TotalLostPackets 	13
scalar MyScenario.node[189].nic.mac1609_4 	DroppedPacketsInMac 	0
scalar MyScenario.node[189].nic.mac1609_4 	TooLittleTime 	0
scalar MyScenario.node[189].nic.mac1609_4 	TimesIntoBackoff 	1
scalar MyScenario.node[189].nic.mac1609_4 	SlotsBackoff 	3
scalar MyScenario.node[189].nic.mac1609_4 	NumInternalContention 	0
scalar MyScenario.node[189].nic.mac1609_4 	totalBusyTime 	0.000929
scalar MyScenario.node[189].veinsmobility 	startTime 	4
scalar MyScenario.node[189].veinsmobility 	totalTime 	43
scalar MyScenario.node[189].veinsmobility 	stopTime 	48
scalar MyScenario.node[189].veinsmobility 	minSpeed 	1.3205670068273
scalar MyScenario.node[189].veinsmobility 	maxSpeed 	13.868002369953
scalar MyScenario.node[189].veinsmobility 	totalDistance 	471.78758922032
scalar MyScenario.node[189].veinsmobility 	totalCO2Emission 	164.8383362842
scalar MyScenario.node[54].appl 	generatedWSMs 	0
scalar MyScenario.node[54].appl 	receivedWSMs 	0
scalar MyScenario.node[54].appl 	generatedBSMs 	0
scalar MyScenario.node[54].appl 	receivedBSMs 	0
scalar MyScenario.node[54].appl 	generatedWSAs 	0
scalar MyScenario.node[54].appl 	receivedWSAs 	0
scalar MyScenario.node[54].nic.phy80211p 	busyTime 	5.3166666666667e-05
scalar MyScenario.node[54].nic.mac1609_4 	ReceivedUnicastPackets 	0
scalar MyScenario.node[54].nic.mac1609_4 	ReceivedBroadcasts 	0
scalar MyScenario.node[54].nic.mac1609_4 	SentPackets 	0
scalar MyScenario.node[54].nic.mac1609_4 	SNIRLostPackets 	11
scalar MyScenario.node[54].nic.mac1609_4 	RXTXLostPackets 	0
scalar MyScenario.node[54].nic.mac1609_4 	TotalLostPackets 	11
scalar MyScenario.node[54].nic.mac1609_4 	DroppedPacketsInMac 	0
scalar MyScenario.node[54].nic.mac1609_4 	TooLittleTime 	0
scalar MyScenario.node[54].nic.mac1609_4 	TimesIntoBackoff 	0
scalar MyScenario.node[54].nic.mac1609_4 	SlotsBackoff 	0
scalar MyScenario.node[54].nic.mac1609_4 	NumInternalContention 	0
scalar MyScenario.node[54].nic.mac1609_4 	totalBusyTime 	0.000696
scalar MyScenario.node[54].veinsmobility 	startTime 	1
scalar MyScenario.node[54].veinsmobility 	totalTime 	47
scalar MyScenario.node[54].veinsmobility 	stopTime 	49
scalar MyScenario.node[54].veinsmobility 	minSpeed 	2.4548404037487
scalar MyScenario.node[54].veinsmobility 	maxSpeed 	13.869422864891
scalar MyScenario.node[54].veinsmobility 	totalDistance 	557.413025396
scalar MyScenario.node[54].veinsmobility 	totalCO2Emission 	134.31522512709
scalar MyScenario.node[114].appl 	generatedWSMs 	1
scalar MyScenario.node[114].appl 	receivedWSMs 	2
scalar MyScenario.node[114].appl 	generatedBSMs 	0
scalar MyScenario.node[114].appl 	receivedBSMs 	0
scalar MyScenario.node[114].appl 	generatedWSAs 	0
scalar MyScenario.node[114].appl 	receivedWSAs 	0
scalar MyScenario.node[114].nic.phy80211p 	busyTime 	0.00014677551020408
scalar MyScenario.node[114].nic.mac1609_4 	ReceivedUnicastPackets 	0
scalar MyScenario.node[114].nic.mac1609_4 	ReceivedBroadcasts 	2
scalar MyScenario.node[114].nic.mac1609_4 	SentPackets 	1
scalar MyScenario.node[114].nic.mac1609_4 	SNIRLostPackets 	29
scalar MyScenario.node[114].nic.mac1609_4 	RXTXLostPackets 	1
scalar MyScenario.node[114].nic.mac1609_4 	TotalLostPackets 	30
scalar MyScenario.node[114].nic.mac1609_4 	DroppedPacketsInMac 	0
scalar MyScenario.node[114].nic.mac1609_4 	TooLittleTime 	0
scalar MyScenario.node[114].nic.mac1609_4 	TimesIntoBackoff 	1
scalar MyScenario.node[114].nic.mac1609_4 	SlotsBackoff 	1
scalar MyScenario.node[114].nic.mac1609_4 	NumInternalContention 	0
scalar MyScenario.node[114].nic.mac1609_4 	totalBusyTime 	0.002321
scalar MyScenario.node[114].veinsmobility 	startTime 	1
scalar MyScenario.node[114].veinsmobility 	totalTime 	48
scalar MyScenario.node[114].veinsmobility 	stopTime 	50
scalar MyScenario.node[114].veinsmobility 	minSpeed 	2.5089703593869
scalar MyScenario.node[114].veinsmobility 	maxSpeed 	13.846697790781
scalar MyScenario.node[114].veinsmobility 	totalDistance 	568.22499549614
scalar MyScenario.node[114].veinsmobility 	totalCO2Emission 	142.28345426762
scalar MyScenario.node[63].appl 	generatedWSMs 	0
scalar MyScenario.node[63].appl 	receivedWSMs 	0
scalar MyScenario.node[63].appl 	generatedBSMs 	0
scalar MyScenario.node[63].appl 	receivedBSMs 	0
scalar MyScenario.node[63].appl 	generatedWSAs 	0
scalar MyScenario.node[63].appl 	receivedWSAs 	0
scalar MyScenario.node[63].nic.phy80211p 	busyTime 	6.1551020408163e-05
scalar MyScenario.node[63].nic.mac1609_4 	ReceivedUnicastPackets 	0
scalar MyScenario.node[63].nic.mac1609_4 	ReceivedBroadcasts 	0
scalar MyScenario.node[63].nic.mac1609_4 	SentPackets 	0
scalar MyScenario.node[63].nic.mac1609_4 	SNIRLostPackets 	13
scalar MyScenario.node[63].nic.mac1609_4 	RXTXLostPackets 	0
scalar MyScenario.node[63].nic.mac1609_4 	TotalLostPackets 	13
scalar MyScenario.node[63].nic.mac1609_4 	DroppedPacketsInMac 	0
scalar MyScenario.node[63].nic.mac1609_4 	TooLittleTime 	0
scalar MyScenario.node[63].nic.mac1609_4 	TimesIntoBackoff 	0
scalar MyScenario.node[63].nic.mac1609_4 	SlotsBackoff 	0
scalar MyScenario.node[63].nic.mac1609_4 	NumInternalContention 	0
scalar MyScenario.node[63].nic.mac1609_4 	totalBusyTime 	0.000928
scalar MyScenario.node[63].veinsmobility 	startTime 	1
scalar MyScenario.node[63].veinsmobility 	totalTime 	48
scalar MyScenario.node[63].veinsmobility 	stopTime 	50
scalar MyScenario.node[63].veinsmobility 	minSpeed 	2.1653265996138
scalar MyScenario.node[63].veinsmobility 	maxSpeed 	13.808323032246
scalar MyScenario.node[63].veinsmobility 	totalDistance 	561.19015743925
scalar MyScenario.node[63].veinsmobility 	totalCO2Emission 	160.84740998553
scalar MyScenario.node[180].appl 	generatedWSMs 	1
scalar MyScenario.node[180].appl 	receivedWSMs 	9
scalar MyScenario.node[180].appl 	generatedBSMs 	0
scalar MyScenario.node[180].appl 	receivedBSMs 	0
scalar MyScenario.node[180].appl 	generatedWSAs 	0
scalar MyScenario.node[180].appl 	receivedWSAs 	0
scalar MyScenario.node[180].nic.phy80211p 	busyTime 	6.9106382978723e-05
scalar MyScenario.node[180].nic.mac1609_4 	ReceivedUnicastPackets 	0
scalar MyScenario.node[180].nic.mac1609_4 	ReceivedBroadcasts 	9
scalar MyScenario.node[180].nic.mac1609_4 	SentPackets 	1
scalar MyScenario.node[180].nic.mac1609_4 	SNIRLostPackets 	5
scalar MyScenario.node[180].nic.mac1609_4 	RXTXLostPackets 	10
scalar MyScenario.node[180].nic.mac1609_4 	TotalLostPackets 	15
scalar MyScenario.node[180].nic.mac1609_4 	DroppedPacketsInMac 	0
scalar MyScenario.node[180].nic.mac1609_4 	TooLittleTime 	0
scalar MyScenario.node[180].nic.mac1609_4 	TimesIntoBackoff 	1
scalar MyScenario.node[180].nic.mac1609_4 	SlotsBackoff 	2
scalar MyScenario.node[180].nic.mac1609_4 	NumInternalContention 	0
scalar MyScenario.node[180].nic.mac1609_4 	totalBusyTime 	0.003017
scalar MyScenario.node[180].veinsmobility 	startTime 	4
scalar MyScenario.node[180].veinsmobility 	totalTime 	46
scalar MyScenario.node[180].veinsmobility 	stopTime 	51
scalar MyScenario.node[180].veinsmobility 	minSpeed 	2.1909587416332
scalar MyScenario.node[180].veinsmobility 	maxSpeed 	13.834092066973
scalar MyScenario.node[180].veinsmobility 	totalDistance 	565.75810317917
scalar MyScenario.node[180].veinsmobility 	totalCO2Emission 	116.88361797897
scalar MyScenario.node[90].appl 	generatedWSMs 	1
scalar MyScenario.node[90].appl 	receivedWSMs 	3
scalar MyScenario.node[90].appl 	generatedBSMs 	0
scalar MyScenario.node[90].appl 	receivedBSMs 	0
scalar MyScenario.node[90].appl 	generatedWSAs 	0
scalar MyScenario.node[90].appl 	receivedWSAs 	0
scalar MyScenario.node[90].nic.phy80211p 	busyTime 	8.816e-05
scalar MyScenario.node[90].nic.mac1609_4 	ReceivedUnicastPackets 	0
scalar MyScenario.node[90].nic.mac1609_4 	ReceivedBroadcasts 	3
scalar MyScenario.node[90].nic.mac1609_4 	SentPackets 	1
scalar MyScenario.node[90].nic.mac1609_4 	SNIRLostPackets 	16
scalar MyScenario.node[90].nic.mac1609_4 	RXTXLostPackets 	11
scalar MyScenario.node[90].nic.mac1609_4 	TotalLostPackets 	27
scalar MyScenario.node[90].nic.mac1609_4 	DroppedPacketsInMac 	0
scalar MyScenario.node[90].nic.mac1609_4 	TooLittleTime 	0
scalar MyScenario.node[90].nic.mac1609_4 	TimesIntoBackoff 	1
scalar MyScenario.node[90].nic.mac1609_4 	SlotsBackoff 	2
scalar MyScenario.node[90].nic.mac1609_4 	NumInternalContention 	0
scalar MyScenario.node[90].nic.mac1609_4 	totalBusyTime 	0.001625116753
scalar MyScenario.node[90].veinsmobility 	startTime 	1
scalar MyScenario.node[90].veinsmobility 	totalTime 	49
scalar MyScenario.node[90].veinsmobility 	stopTime 	51
scalar MyScenario.node[90].veinsmobility 	minSpeed 	2.130071399617
scalar MyScenario.node[90].veinsmobility 	maxSpeed 	13.81607197416
scalar MyScenario.node[90].veinsmobility 	totalDistance 	571.63468813549
scalar MyScenario.node[90].veinsmobility 	totalCO2Emission 	143.53954622758
scalar MyScenario.node[109].appl 	generatedWSMs 	1
scalar MyScenario.node[109].appl 	receivedWSMs 	8
scalar MyScenario.node[109].appl 	generatedBSMs 	0
scalar MyScenario.node[109].appl 	receivedBSMs 	0
scalar MyScenario.node[109].appl 	generatedWSAs 	0
scalar MyScenario.node[109].appl 	receivedWSAs 	0
scalar MyScenario.node[109].nic.phy80211p 	busyTime 	0.00015011764705882
scalar MyScenario.node[109].nic.mac1609_4 	ReceivedUnicastPackets 	0
scalar MyScenario.node[109].nic.mac1609_4 	ReceivedBroadcasts 	8
scalar MyScenario.node[109].nic.mac1609_4 	SentPackets 	1
scalar MyScenario.node[109].nic.mac1609_4 	SNIRLostPackets 	25
scalar MyScenario.node[109].nic.mac1609_4 	RXTXLostPackets 	0
scalar MyScenario.node[109].nic.mac1609_4 	TotalLostPackets 	25
scalar MyScenario.node[109].nic.mac1609_4 	DroppedPacketsInMac 	0
scalar MyScenario.node[109].nic.mac1609_4 	TooLittleTime 	0
scalar MyScenario.node[109].nic.mac1609_4 	TimesIntoBackoff 	1
scalar MyScenario.node[109].nic.mac1609_4 	SlotsBackoff 	2
scalar MyScenario.node[109].nic.mac1609_4 	NumInternalContention 	0
scalar MyScenario.node[109].nic.mac1609_4 	totalBusyTime 	0.003945
scalar MyScenario.node[109].veinsmobility 	startTime 	1
scalar MyScenario.node[109].veinsmobility 	totalTime 	50
scalar MyScenario.node[109].veinsmobility 	stopTime 	52
scalar MyScenario.node[109].veinsmobility 	minSpeed 	2.5519744504476
scalar MyScenario.node[109].veinsmobility 	maxSpeed 	13.872763996874
scalar MyScenario.node[109].veinsmobility 	totalDistance 	558.49383855802
scalar MyScenario.node[109].veinsmobility 	totalCO2Emission 	171.69014870251
scalar MyScenario.node[117].appl 	generatedWSMs 	0
scalar MyScenario.node[117].appl 	receivedWSMs 	0
scalar MyScenario.node[117].appl 	generatedBSMs 	0
scalar MyScenario.node[117].appl 	receivedBSMs 	0
scalar MyScenario.node[117].appl 	generatedWSAs 	0
scalar MyScenario.node[117].appl 	receivedWSAs 	0
scalar MyScenario.node[117].nic.phy80211p 	busyTime 	0
scalar MyScenario.node[117].nic.mac1609_4 	ReceivedUnicastPackets 	0
scalar MyScenario.node[117].nic.mac1609_4 	ReceivedBroadcasts 	0
scalar MyScenario.node[117].nic.mac1609_4 	SentPackets 	0
scalar MyScenario.node[117].nic.mac1609_4 	SNIRLostPackets 	0
scalar MyScenario.node[117].nic.mac1609_4 	RXTXLostPackets 	0
scalar MyScenario.node[117].nic.mac1609_4 	TotalLostPackets 	0
scalar MyScenario.node[117].nic.mac1609_4 	DroppedPacketsInMac 	0
scalar MyScenario.node[117].nic.mac1609_4 	TooLittleTime 	0
scalar MyScenario.node[117].nic.mac1609_4 	TimesIntoBackoff 	0
scalar MyScenario.node[117].nic.mac1609_4 	SlotsBackoff 	0
scalar MyScenario.node[117].nic.mac1609_4 	NumInternalContention 	0
scalar MyScenario.node[117].nic.mac1609_4 	totalBusyTime 	0
scalar MyScenario.node[117].veinsmobility 	startTime 	1
scalar MyScenario.node[117].veinsmobility 	totalTime 	50
scalar MyScenario.node[117].veinsmobility 	stopTime 	52
scalar MyScenario.node[117].veinsmobility 	minSpeed 	0.30909051450101
scalar MyScenario.node[117].veinsmobility 	maxSpeed 	13.793971867929
scalar MyScenario.node[117].veinsmobility 	totalDistance 	469.1608570639
scalar MyScenario.node[117].veinsmobility 	totalCO2Emission 	171.8728639054
scalar MyScenario.node[80].appl 	generatedWSMs 	0
scalar MyScenario.node[80].appl 	receivedWSMs 	0
scalar MyScenario.node[80].appl 	generatedBSMs 	0
scalar MyScenario.node[80].appl 	receivedBSMs 	0
scalar MyScenario.node[80].appl 	generatedWSAs 	0
scalar MyScenario.node[80].appl 	receivedWSAs 	0
scalar MyScenario.node[80].nic.phy80211p 	busyTime 	2.2307692307692e-05
scalar MyScenario.node[80].nic.mac1609_4 	ReceivedUnicastPackets 	0
scalar MyScenario.node[80].nic.mac1609_4 	ReceivedBroadcasts 	0
scalar MyScenario.node[80].nic.mac1609_4 	SentPackets 	0
scalar MyScenario.node[80].nic.mac1609_4 	SNIRLostPackets 	5
scalar MyScenario.node[80].nic.mac1609_4 	RXTXLostPackets 	0
scalar MyScenario.node[80].nic.mac1609_4 	TotalLostPackets 	5
scalar MyScenario.node[80].nic.mac1609_4 	DroppedPacketsInMac 	0
scalar MyScenario.node[80].nic.mac1609_4 	TooLittleTime 	0
scalar MyScenario.node[80].nic.mac1609_4 	TimesIntoBackoff 	0
scalar MyScenario.node[80].nic.mac1609_4 	SlotsBackoff 	0
scalar MyScenario.node[80].nic.mac1609_4 	NumInternalContention 	0
scalar MyScenario.node[80].nic.mac1609_4 	totalBusyTime 	0.000464
scalar MyScenario.node[80].veinsmobility 	startTime 	1
scalar MyScenario.node[80].veinsmobility 	totalTime 	51
scalar MyScenario.node[80].veinsmobility 	stopTime 	53
scalar MyScenario.node[80].veinsmobility 	minSpeed 	2.2577917741146
scalar MyScenario.node[80].veinsmobility 	maxSpeed 	13.798052359582
scalar MyScenario.node[80].veinsmobility 	totalDistance 	560.1874190631
scalar MyScenario.node[80].veinsmobility 	totalCO2Emission 	168.25849407387
scalar MyScenario.node[86].appl 	generatedWSMs 	1
scalar MyScenario.node[86].appl 	receivedWSMs 	12
scalar MyScenario.node[86].appl 	generatedBSMs 	0
scalar MyScenario.node[86].appl 	receivedBSMs 	0
scalar MyScenario.node[86].appl 	generatedWSAs 	0
scalar MyScenario.node[86].appl 	receivedWSAs 	0
scalar MyScenario.node[86].nic.phy80211p 	busyTime 	9.8153846153846e-05
scalar MyScenario.node[86].nic.mac1609_4 	ReceivedUnicastPackets 	0
scalar MyScenario.node[86].nic.mac1609_4 	ReceivedBroadcasts 	12
scalar MyScenario.node[86].nic.mac1609_4 	SentPackets 	1
scalar MyScenario.node[86].nic.mac1609_4 	SNIRLostPackets 	10
scalar MyScenario.node[86].nic.mac1609_4 	RXTXLostPackets 	9
scalar MyScenario.node[86].nic.mac1609_4 	TotalLostPackets 	19
scalar MyScenario.node[86].nic.mac1609_4 	DroppedPacketsInMac 	0
scalar MyScenario.node[86].nic.mac1609_4 	TooLittleTime 	0
scalar MyScenario.node[86].nic.mac1609_4 	TimesIntoBackoff 	1
scalar MyScenario.node[86].nic.mac1609_4 	SlotsBackoff 	2
scalar MyScenario.node[86].nic.mac1609_4 	NumInternalContention 	0
scalar MyScenario.node[86].nic.mac1609_4 	totalBusyTime 	0.003713
scalar MyScenario.node[86].veinsmobility 	startTime 	1
scalar MyScenario.node[86].veinsmobility 	totalTime 	51
scalar MyScenario.node[86].veinsmobility 	stopTime 	53
scalar MyScenario.node[86].veinsmobility 	minSpeed 	2.1816696956122e-11
scalar MyScenario.node[86].veinsmobility 	maxSpeed 	13.830767438002
scalar MyScenario.node[86].veinsmobility 	totalDistance 	369.54380352766
scalar MyScenario.node[86].veinsmobility 	totalCO2Emission 	149.08934515746
scalar MyScenario.node[186].appl 	generatedWSMs 	0
scalar MyScenario.node[186].appl 	receivedWSMs 	0
scalar MyScenario.node[186].appl 	generatedBSMs 	0
scalar MyScenario.node[186].appl 	receivedBSMs 	0
scalar MyScenario.node[186].appl 	generatedWSAs 	0
scalar MyScenario.node[186].appl 	receivedWSAs 	0
scalar MyScenario.node[186].nic.phy80211p 	busyTime 	7.424e-05
scalar MyScenario.node[186].nic.mac1609_4 	ReceivedUnicastPackets 	0
scalar MyScenario.node[186].nic.mac1609_4 	ReceivedBroadcasts 	0
scalar MyScenario.node[186].nic.mac1609_4 	SentPackets 	0
scalar MyScenario.node[186].nic.mac1609_4 	SNIRLostPackets 	16
scalar MyScenario.node[186].nic.mac1609_4 	RXTXLostPackets 	0
scalar MyScenario.node[186].nic.mac1609_4 	TotalLostPackets 	16
scalar MyScenario.node[186].nic.mac1609_4 	DroppedPacketsInMac 	0
scalar MyScenario.node[186].nic.mac1609_4 	TooLittleTime 	0
scalar MyScenario.node[186].nic.mac1609_4 	TimesIntoBackoff 	0
scalar MyScenario.node[186].nic.mac1609_4 	SlotsBackoff 	0
scalar MyScenario.node[186].nic.mac1609_4 	NumInternalContention 	0
scalar MyScenario.node[186].nic.mac1609_4 	totalBusyTime 	0.001392
scalar MyScenario.node[186].veinsmobility 	startTime 	4
scalar MyScenario.node[186].veinsmobility 	totalTime 	49
scalar MyScenario.node[186].veinsmobility 	stopTime 	54
scalar MyScenario.node[186].veinsmobility 	minSpeed 	2.5500850808341
scalar MyScenario.node[186].veinsmobility 	maxSpeed 	13.787941793283
scalar MyScenario.node[186].veinsmobility 	totalDistance 	576.44483382794
scalar MyScenario.node[186].veinsmobility 	totalCO2Emission 	141.61101086736
scalar MyScenario.node[148].appl 	generatedWSMs 	0
scalar MyScenario.node[148].appl 	receivedWSMs 	0
scalar MyScenario.node[148].appl 	generatedBSMs 	0
scalar MyScenario.node[148].appl 	receivedBSMs 	0
scalar MyScenario.node[148].appl 	generatedWSAs 	0
scalar MyScenario.node[148].appl 	receivedWSAs 	0
scalar MyScenario.node[148].nic.phy80211p 	busyTime 	3.5018867924528e-05
scalar MyScenario.node[148].nic.mac1609_4 	ReceivedUnicastPackets 	0
scalar MyScenario.node[148].nic.mac1609_4 	ReceivedBroadcasts 	0
scalar MyScenario.node[148].nic.mac1609_4 	SentPackets 	0
scalar MyScenario.node[148].nic.mac1609_4 	SNIRLostPackets 	8
scalar MyScenario.node[148].nic.mac1609_4 	RXTXLostPackets 	0
scalar MyScenario.node[148].nic.mac1609_4 	TotalLostPackets 	8
scalar MyScenario.node[148].nic.mac1609_4 	DroppedPacketsInMac 	0
scalar MyScenario.node[148].nic.mac1609_4 	TooLittleTime 	0
scalar MyScenario.node[148].nic.mac1609_4 	TimesIntoBackoff 	0
scalar MyScenario.node[148].nic.mac1609_4 	SlotsBackoff 	0
scalar MyScenario.node[148].nic.mac1609_4 	NumInternalContention 	0
scalar MyScenario.node[148].nic.mac1609_4 	totalBusyTime 	0.000464
scalar MyScenario.node[148].veinsmobility 	startTime 	1
scalar MyScenario.node[148].veinsmobility 	totalTime 	52
scalar MyScenario.node[148].veinsmobility 	stopTime 	54
scalar MyScenario.node[148].veinsmobility 	minSpeed 	1.5514631730272
scalar MyScenario.node[148].veinsmobility 	maxSpeed 	13.854768440803
scalar MyScenario.node[148].veinsmobility 	totalDistance 	566.95473948489
scalar MyScenario.node[148].veinsmobility 	totalCO2Emission 	186.25519802575
scalar MyScenario.node[67].appl 	generatedWSMs 	1
scalar MyScenario.node[67].appl 	receivedWSMs 	4
scalar MyScenario.node[67].appl 	generatedBSMs 	0
scalar MyScenario.node[67].appl 	receivedBSMs 	0
scalar MyScenario.node[67].appl 	generatedWSAs 	0
scalar MyScenario.node[67].appl 	receivedWSAs 	0
scalar MyScenario.node[67].nic.phy80211p 	busyTime 	0.00011381132075472
scalar MyScenario.node[67].nic.mac1609_4 	ReceivedUnicastPackets 	0
scalar MyScenario.node[67].nic.mac1609_4 	ReceivedBroadcasts 	4
scalar MyScenario.node[67].nic.mac1609_4 	SentPackets 	1
scalar MyScenario.node[67].nic.mac1609_4 	SNIRLostPackets 	22
scalar MyScenario.node[67].nic.mac1609_4 	RXTXLostPackets 	3
scalar MyScenario.node[67].nic.mac1609_4 	TotalLostPackets 	25
scalar MyScenario.node[67].nic.mac1609_4 	DroppedPacketsInMac 	0
scalar MyScenario.node[67].nic.mac1609_4 	TooLittleTime 	0
scalar MyScenario.node[67].nic.mac1609_4 	TimesIntoBackoff 	1
scalar MyScenario.node[67].nic.mac1609_4 	SlotsBackoff 	3
scalar MyScenario.node[67].nic.mac1609_4 	NumInternalContention 	0
scalar MyScenario.node[67].nic.mac1609_4 	totalBusyTime 	0.002321062643
scalar MyScenario.node[67].veinsmobility 	startTime 	1
scalar MyScenario.node[67].veinsmobility 	totalTime 	52
scalar MyScenario.node[67].veinsmobility 	stopTime 	54
scalar MyScenario.node[67].veinsmobility 	minSpeed 	1.4229795925319
scalar MyScenario.node[67].veinsmobility 	maxSpeed 	13.876696417248
scalar MyScenario.node[67].veinsmobility 	totalDistance 	565.27625849143
scalar MyScenario.node[67].veinsmobility 	totalCO2Emission 	189.0243498827
scalar MyScenario.node[53].appl 	generatedWSMs 	0
scalar MyScenario.node[53].appl 	receivedWSMs 	0
scalar MyScenario.node[53].appl 	generatedBSMs 	0
scalar MyScenario.node[53].appl 	receivedBSMs 	0
scalar MyScenario.node[53].appl 	generatedWSAs 	0
scalar MyScenario.node[53].appl 	receivedWSAs 	0
scalar MyScenario.node[53].nic.phy80211p 	busyTime 	4.7259259259259e-05
scalar MyScenario.node[53].nic.mac1609_4 	ReceivedUnicastPackets 	0
scalar MyScenario.node[53].nic.mac1609_4 	ReceivedBroadcasts 	0
scalar MyScenario.node[53].nic.mac1609_4 	SentPackets 	0
scalar MyScenario.node[53].nic.mac1609_4 	SNIRLostPackets 	11
scalar MyScenario.node[53].nic.mac1609_4 	RXTXLostPackets 	0
scalar MyScenario.node[53].nic.mac1609_4 	TotalLostPackets 	11
scalar MyScenario.node[53].nic.mac1609_4 	DroppedPacketsInMac 	0
scalar MyScenario.node[53].nic.mac1609_4 	TooLittleTime 	0
scalar MyScenario.node[53].nic.mac1609_4 	TimesIntoBackoff 	0
scalar MyScenario.node[53].nic.mac1609_4 	SlotsBackoff 	0
scalar MyScenario.node[53].nic.mac1609_4 	NumInternalContention 	0
scalar MyScenario.node[53].nic.mac1609_4 	totalBusyTime 	0.000696
scalar MyScenario.node[53].veinsmobility 	startTime 	1
scalar MyScenario.node[53].veinsmobility 	totalTime 	53
scalar MyScenario.node[53].veinsmobility 	stopTime 	55
scalar MyScenario.node[53].veinsmobility 	minSpeed 	1.3079276492354
scalar MyScenario.node[53].veinsmobility 	maxSpeed 	13.804022453912
scalar MyScenario.node[53].veinsmobility 	totalDistance 	567.7123674439
scalar MyScenario.node[53].veinsmobility 	totalCO2Emission 	191.65426202929
scalar MyScenario.node[76].appl 	generatedWSMs 	1
scalar MyScenario.node[76].appl 	receivedWSMs 	10
scalar MyScenario.node[76].appl 	generatedBSMs 	0
scalar MyScenario.node[76].appl 	receivedBSMs 	0
scalar MyScenario.node[76].appl 	generatedWSAs 	0
scalar MyScenario.node[76].appl 	receivedWSAs 	0
scalar MyScenario.node[76].nic.phy80211p 	busyTime 	0.00015185454545455
scalar MyScenario.node[76].nic.mac1609_4 	ReceivedUnicastPackets 	0
scalar MyScenario.node[76].nic.mac1609_4 	ReceivedBroadcasts 	10
scalar MyScenario.node[76].nic.mac1609_4 	SentPackets 	1
scalar MyScenario.node[76].nic.mac1609_4 	SNIRLostPackets 	26
scalar MyScenario.node[76].nic.mac1609_4 	RXTXLostPackets 	10
scalar MyScenario.node[76].nic.mac1609_4 	TotalLostPackets 	36
scalar MyScenario.node[76].nic.mac1609_4 	DroppedPacketsInMac 	0
scalar MyScenario.node[76].nic.mac1609_4 	TooLittleTime 	0
scalar MyScenario.node[76].nic.mac1609_4 	TimesIntoBackoff 	1
scalar MyScenario.node[76].nic.mac1609_4 	SlotsBackoff 	2
scalar MyScenario.node[76].nic.mac1609_4 	NumInternalContention 	0
scalar MyScenario.node[76].nic.mac1609_4 	totalBusyTime 	0.004177
scalar MyScenario.node[76].veinsmobility 	startTime 	1
scalar MyScenario.node[76].veinsmobility 	totalTime 	54
scalar MyScenario.node[76].veinsmobility 	stopTime 	56
scalar MyScenario.node[76].veinsmobility 	minSpeed 	0.552139446272
scalar MyScenario.node[76].veinsmobility 	maxSpeed 	13.807992748311
scalar MyScenario.node[76].veinsmobility 	totalDistance 	576.80889693287
scalar MyScenario.node[76].veinsmobility 	totalCO2Emission 	168.31911193228
scalar MyScenario.node[44].appl 	generatedWSMs 	1
scalar MyScenario.node[44].appl 	receivedWSMs 	12
scalar MyScenario.node[44].appl 	generatedBSMs 	0
scalar MyScenario.node[44].appl 	receivedBSMs 	0
scalar MyScenario.node[44].appl 	generatedWSAs 	0
scalar MyScenario.node[44].appl 	receivedWSAs 	0
scalar MyScenario.node[44].nic.phy80211p 	busyTime 	0.00023621818181818
scalar MyScenario.node[44].nic.mac1609_4 	ReceivedUnicastPackets 	0
scalar MyScenario.node[44].nic.mac1609_4 	ReceivedBroadcasts 	12
scalar MyScenario.node[44].nic.mac1609_4 	SentPackets 	1
scalar MyScenario.node[44].nic.mac1609_4 	SNIRLostPackets 	44
scalar MyScenario.node[44].nic.mac1609_4 	RXTXLostPackets 	10
scalar MyScenario.node[44].nic.mac1609_4 	TotalLostPackets 	54
scalar MyScenario.node[44].nic.mac1609_4 	DroppedPacketsInMac 	0
scalar MyScenario.node[44].nic.mac1609_4 	TooLittleTime 	0
scalar MyScenario.node[44].nic.mac1609_4 	TimesIntoBackoff 	1
scalar MyScenario.node[44].nic.mac1609_4 	SlotsBackoff 	2
scalar MyScenario.node[44].nic.mac1609_4 	NumInternalContention 	0
scalar MyScenario.node[44].nic.mac1609_4 	totalBusyTime 	0.004873153353
scalar MyScenario.node[44].veinsmobility 	startTime 	1
scalar MyScenario.node[44].veinsmobility 	totalTime 	54
scalar MyScenario.node[44].veinsmobility 	stopTime 	56
scalar MyScenario.node[44].veinsmobility 	minSpeed 	7.2095826553967e-10
scalar MyScenario.node[44].veinsmobility 	maxSpeed 	13.8946052616
scalar MyScenario.node[44].veinsmobility 	totalDistance 	481.91804274216
scalar MyScenario.node[44].veinsmobility 	totalCO2Emission 	162.82112007878
scalar MyScenario.node[97].appl 	generatedWSMs 	0
scalar MyScenario.node[97].appl 	receivedWSMs 	0
scalar MyScenario.node[97].appl 	generatedBSMs 	0
scalar MyScenario.node[97].appl 	receivedBSMs 	0
scalar MyScenario.node[97].appl 	generatedWSAs 	0
scalar MyScenario.node[97].appl 	receivedWSAs 	0
scalar MyScenario.node[97].nic.phy80211p 	busyTime 	3.7285714285714e-05
scalar MyScenario.node[97].nic.mac1609_4 	ReceivedUnicastPackets 	0
scalar MyScenario.node[97].nic.mac1609_4 	ReceivedBroadcasts 	0
scalar MyScenario.node[97].nic.mac1609_4 	SentPackets 	0
scalar MyScenario.node[97].nic.mac1609_4 	SNIRLostPackets 	9
scalar MyScenario.node[97].nic.mac1609_4 	RXTXLostPackets 	0
scalar MyScenario.node[97].nic.mac1609_4 	TotalLostPackets 	9
scalar MyScenario.node[97].nic.mac1609_4 	DroppedPacketsInMac 	0
scalar MyScenario.node[97].nic.mac1609_4 	TooLittleTime 	0
scalar MyScenario.node[97].nic.mac1609_4 	TimesIntoBackoff 	0
scalar MyScenario.node[97].nic.mac1609_4 	SlotsBackoff 	0
scalar MyScenario.node[97].nic.mac1609_4 	NumInternalContention 	0
scalar MyScenario.node[97].nic.mac1609_4 	totalBusyTime 	0.000696
scalar MyScenario.node[97].veinsmobility 	startTime 	1
scalar MyScenario.node[97].veinsmobility 	totalTime 	55
scalar MyScenario.node[97].veinsmobility 	stopTime 	57
scalar MyScenario.node[97].veinsmobility 	minSpeed 	0.42419177873158
scalar MyScenario.node[97].veinsmobility 	maxSpeed 	13.891639589728
scalar MyScenario.node[97].veinsmobility 	totalDistance 	566.98376948858
scalar MyScenario.node[97].veinsmobility 	totalCO2Emission 	186.06721462081
scalar MyScenario.node[62].appl 	generatedWSMs 	1
scalar MyScenario.node[62].appl 	receivedWSMs 	7
scalar MyScenario.node[62].appl 	generatedBSMs 	0
scalar MyScenario.node[62].appl 	receivedBSMs 	0
scalar MyScenario.node[62].appl 	generatedWSAs 	0
scalar MyScenario.node[62].appl 	receivedWSAs 	0
scalar MyScenario.node[62].nic.phy80211p 	busyTime 	9.9428571428571e-05
scalar MyScenario.node[62].nic.mac1609_4 	ReceivedUnicastPackets 	0
scalar MyScenario.node[62].nic.mac1609_4 	ReceivedBroadcasts 	7
scalar MyScenario.node[62].nic.mac1609_4 	SentPackets 	1
scalar MyScenario.node[62].nic.mac1609_4 	SNIRLostPackets 	17
scalar MyScenario.node[62].nic.mac1609_4 	RXTXLostPackets 	4
scalar MyScenario.node[62].nic.mac1609_4 	TotalLostPackets 	21
scalar MyScenario.node[62].nic.mac1609_4 	DroppedPacketsInMac 	0
scalar MyScenario.node[62].nic.mac1609_4 	TooLittleTime 	0
scalar MyScenario.node[62].nic.mac1609_4 	TimesIntoBackoff 	1
scalar MyScenario.node[62].nic.mac1609_4 	SlotsBackoff 	1
scalar MyScenario.node[62].nic.mac1609_4 	NumInternalContention 	0
scalar MyScenario.node[62].nic.mac1609_4 	totalBusyTime 	0.002553
scalar MyScenario.node[62].veinsmobility 	startTime 	1
scalar MyScenario.node[62].veinsmobility 	totalTime 	55
scalar MyScenario.node[62].veinsmobility 	stopTime 	57
scalar MyScenario.node[62].veinsmobility 	minSpeed 	2.3805375110591
scalar MyScenario.node[62].veinsmobility 	maxSpeed 	13.894266923354
scalar MyScenario.node[62].veinsmobility 	totalDistance 	672.77420559908
scalar MyScenario.node[62].veinsmobility 	totalCO2Emission 	155.36951731665
scalar MyScenario.node[154].appl 	generatedWSMs 	1
scalar MyScenario.node[154].appl 	receivedWSMs 	1
scalar MyScenario.node[154].appl 	generatedBSMs 	0
scalar MyScenario.node[154].appl 	receivedBSMs 	0
scalar MyScenario.node[154].appl 	generatedWSAs 	0
scalar MyScenario.node[154].appl 	receivedWSAs 	0
scalar MyScenario.node[154].nic.phy80211p 	busyTime 	6.3272727272727e-05
scalar MyScenario.node[154].nic.mac1609_4 	ReceivedUnicastPackets 	0
scalar MyScenario.node[154].nic.mac1609_4 	ReceivedBroadcasts 	1
scalar MyScenario.node[154].nic.mac1609_4 	SentPackets 	1
scalar MyScenario.node[154].nic.mac1609_4 	SNIRLostPackets 	14
scalar MyScenario.node[154].nic.mac1609_4 	RXTXLostPackets 	11
scalar MyScenario.node[154].nic.mac1609_4 	TotalLostPackets 	25
scalar MyScenario.node[154].nic.mac1609_4 	DroppedPacketsInMac 	0
scalar MyScenario.node[154].nic.mac1609_4 	TooLittleTime 	0
scalar MyScenario.node[154].nic.mac1609_4 	TimesIntoBackoff 	1
scalar MyScenario.node[154].nic.mac1609_4 	SlotsBackoff 	0
scalar MyScenario.node[154].nic.mac1609_4 	NumInternalContention 	0
scalar MyScenario.node[154].nic.mac1609_4 	totalBusyTime 	0.001625151789
scalar MyScenario.node[154].veinsmobility 	startTime 	3
scalar MyScenario.node[154].veinsmobility 	totalTime 	54
scalar MyScenario.node[154].veinsmobility 	stopTime 	58
scalar MyScenario.node[154].veinsmobility 	minSpeed 	0.3892859382655
scalar MyScenario.node[154].veinsmobility 	maxSpeed 	13.87570733733
scalar MyScenario.node[154].veinsmobility 	totalDistance 	564.92391274322
scalar MyScenario.node[154].veinsmobility 	totalCO2Emission 	172.29270352599
scalar MyScenario.node[143].appl 	generatedWSMs 	1
scalar MyScenario.node[143].appl 	receivedWSMs 	10
scalar MyScenario.node[143].appl 	generatedBSMs 	0
scalar MyScenario.node[143].appl 	receivedBSMs 	0
scalar MyScenario.node[143].appl 	generatedWSAs 	0
scalar MyScenario.node[143].appl 	receivedWSAs 	0
scalar MyScenario.node[143].nic.phy80211p 	busyTime 	0.00013431578947368
scalar MyScenario.node[143].nic.mac1609_4 	ReceivedUnicastPackets 	0
scalar MyScenario.node[143].nic.mac1609_4 	ReceivedBroadcasts 	10
scalar MyScenario.node[143].nic.mac1609_4 	SentPackets 	1
scalar MyScenario.node[143].nic.mac1609_4 	SNIRLostPackets 	23
scalar MyScenario.node[143].nic.mac1609_4 	RXTXLostPackets 	5
scalar MyScenario.node[143].nic.mac1609_4 	TotalLostPackets 	28
scalar MyScenario.node[143].nic.mac1609_4 	DroppedPacketsInMac 	0
scalar MyScenario.node[143].nic.mac1609_4 	TooLittleTime 	0
scalar MyScenario.node[143].nic.mac1609_4 	TimesIntoBackoff 	1
scalar MyScenario.node[143].nic.mac1609_4 	SlotsBackoff 	1
scalar MyScenario.node[143].nic.mac1609_4 	NumInternalContention 	0
scalar MyScenario.node[143].nic.mac1609_4 	totalBusyTime 	0.004177
scalar MyScenario.node[143].veinsmobility 	startTime 	1
scalar MyScenario.node[143].veinsmobility 	totalTime 	56
scalar MyScenario.node[143].veinsmobility 	stopTime 	58
scalar MyScenario.node[143].veinsmobility 	minSpeed 	0.00020366435157916
scalar MyScenario.node[143].veinsmobility 	maxSpeed 	13.812214030279
scalar MyScenario.node[143].veinsmobility 	totalDistance 	477.67509009947
scalar MyScenario.node[143].veinsmobility 	totalCO2Emission 	172.66607502058
scalar MyScenario.node[88].appl 	generatedWSMs 	1
scalar MyScenario.node[88].appl 	receivedWSMs 	3
scalar MyScenario.node[88].appl 	generatedBSMs 	0
scalar MyScenario.node[88].appl 	receivedBSMs 	0
scalar MyScenario.node[88].appl 	generatedWSAs 	0
scalar MyScenario.node[88].appl 	receivedWSAs 	0
scalar MyScenario.node[88].nic.phy80211p 	busyTime 	9.6e-05
scalar MyScenario.node[88].nic.mac1609_4 	ReceivedUnicastPackets 	0
scalar MyScenario.node[88].nic.mac1609_4 	ReceivedBroadcasts 	3
scalar MyScenario.node[88].nic.mac1609_4 	SentPackets 	1
[...]
scalar MyScenario.node[187].nic.mac1609_4 	TotalLostPackets 	21
scalar MyScenario.node[187].nic.mac1609_4 	DroppedPacketsInMac 	0
scalar MyScenario.node[187].nic.mac1609_4 	TooLittleTime 	0
scalar MyScenario.node[187].nic.mac1609_4 	TimesIntoBackoff 	1
scalar MyScenario.node[187].nic.mac1609_4 	SlotsBackoff 	0
scalar MyScenario.node[187].nic.mac1609_4 	NumInternalContention 	0
scalar MyScenario.node[187].nic.mac1609_4 	totalBusyTime 	0.003481
scalar MyScenario.node[187].veinsmobility 	startTime 	4
scalar MyScenario.node[187].veinsmobility 	totalTime 	125
scalar MyScenario.node[187].veinsmobility 	stopTime 	130
scalar MyScenario.node[187].veinsmobility 	minSpeed 	0.15991624437329
scalar MyScenario.node[187].veinsmobility 	maxSpeed 	13.891783096292
scalar MyScenario.node[187].veinsmobility 	totalDistance 	1358.0062905412
scalar MyScenario.node[187].veinsmobility 	totalCO2Emission 	428.6488058877
scalar MyScenario.node[198].appl 	generatedWSMs 	0
scalar MyScenario.node[198].appl 	receivedWSMs 	0
scalar MyScenario.node[198].appl 	generatedBSMs 	0
scalar MyScenario.node[198].appl 	receivedBSMs 	0
scalar MyScenario.node[198].appl 	generatedWSAs 	0
scalar MyScenario.node[198].appl 	receivedWSAs 	0
scalar MyScenario.node[198].nic.phy80211p 	busyTime 	9.3548387096774e-06
scalar MyScenario.node[198].nic.mac1609_4 	ReceivedUnicastPackets 	0
scalar MyScenario.node[198].nic.mac1609_4 	ReceivedBroadcasts 	0
scalar MyScenario.node[198].nic.mac1609_4 	SentPackets 	0
scalar MyScenario.node[198].nic.mac1609_4 	SNIRLostPackets 	5
scalar MyScenario.node[198].nic.mac1609_4 	RXTXLostPackets 	0
scalar MyScenario.node[198].nic.mac1609_4 	TotalLostPackets 	5
scalar MyScenario.node[198].nic.mac1609_4 	DroppedPacketsInMac 	0
scalar MyScenario.node[198].nic.mac1609_4 	TooLittleTime 	0
scalar MyScenario.node[198].nic.mac1609_4 	TimesIntoBackoff 	0
scalar MyScenario.node[198].nic.mac1609_4 	SlotsBackoff 	0
scalar MyScenario.node[198].nic.mac1609_4 	NumInternalContention 	0
scalar MyScenario.node[198].nic.mac1609_4 	totalBusyTime 	0.000696
scalar MyScenario.node[198].veinsmobility 	startTime 	7
scalar MyScenario.node[198].veinsmobility 	totalTime 	123
scalar MyScenario.node[198].veinsmobility 	stopTime 	131
scalar MyScenario.node[198].veinsmobility 	minSpeed 	0.078214408815244
scalar MyScenario.node[198].veinsmobility 	maxSpeed 	13.891382765281
scalar MyScenario.node[198].veinsmobility 	totalDistance 	1472.1651861112
scalar MyScenario.node[198].veinsmobility 	totalCO2Emission 	328.36755917324
scalar MyScenario.node[49].appl 	generatedWSMs 	1
scalar MyScenario.node[49].appl 	receivedWSMs 	1
scalar MyScenario.node[49].appl 	generatedBSMs 	0
scalar MyScenario.node[49].appl 	receivedBSMs 	0
scalar MyScenario.node[49].appl 	generatedWSAs 	0
scalar MyScenario.node[49].appl 	receivedWSAs 	0
scalar MyScenario.node[49].nic.phy80211p 	busyTime 	1.0707692307692e-05
scalar MyScenario.node[49].nic.mac1609_4 	ReceivedUnicastPackets 	0
scalar MyScenario.node[49].nic.mac1609_4 	ReceivedBroadcasts 	1
scalar MyScenario.node[49].nic.mac1609_4 	SentPackets 	1
scalar MyScenario.node[49].nic.mac1609_4 	SNIRLostPackets 	5
scalar MyScenario.node[49].nic.mac1609_4 	RXTXLostPackets 	3
scalar MyScenario.node[49].nic.mac1609_4 	TotalLostPackets 	8
scalar MyScenario.node[49].nic.mac1609_4 	DroppedPacketsInMac 	0
scalar MyScenario.node[49].nic.mac1609_4 	TooLittleTime 	0
scalar MyScenario.node[49].nic.mac1609_4 	TimesIntoBackoff 	1
scalar MyScenario.node[49].nic.mac1609_4 	SlotsBackoff 	1
scalar MyScenario.node[49].nic.mac1609_4 	NumInternalContention 	0
scalar MyScenario.node[49].nic.mac1609_4 	totalBusyTime 	0.000697
scalar MyScenario.node[49].veinsmobility 	startTime 	1
scalar MyScenario.node[49].veinsmobility 	totalTime 	129
scalar MyScenario.node[49].veinsmobility 	stopTime 	131
scalar MyScenario.node[49].veinsmobility 	minSpeed 	2.8940363089668e-08
scalar MyScenario.node[49].veinsmobility 	maxSpeed 	13.878312221798
scalar MyScenario.node[49].veinsmobility 	totalDistance 	1371.9105812731
scalar MyScenario.node[49].veinsmobility 	totalCO2Emission 	367.48142473192
scalar MyScenario.node[146].appl 	generatedWSMs 	1
scalar MyScenario.node[146].appl 	receivedWSMs 	15
scalar MyScenario.node[146].appl 	generatedBSMs 	0
scalar MyScenario.node[146].appl 	receivedBSMs 	0
scalar MyScenario.node[146].appl 	generatedWSAs 	0
scalar MyScenario.node[146].appl 	receivedWSAs 	0
scalar MyScenario.node[146].nic.phy80211p 	busyTime 	4.7454545454545e-05
scalar MyScenario.node[146].nic.mac1609_4 	ReceivedUnicastPackets 	0
scalar MyScenario.node[146].nic.mac1609_4 	ReceivedBroadcasts 	15
scalar MyScenario.node[146].nic.mac1609_4 	SentPackets 	1
scalar MyScenario.node[146].nic.mac1609_4 	SNIRLostPackets 	12
scalar MyScenario.node[146].nic.mac1609_4 	RXTXLostPackets 	6
scalar MyScenario.node[146].nic.mac1609_4 	TotalLostPackets 	18
scalar MyScenario.node[146].nic.mac1609_4 	DroppedPacketsInMac 	0
scalar MyScenario.node[146].nic.mac1609_4 	TooLittleTime 	0
scalar MyScenario.node[146].nic.mac1609_4 	TimesIntoBackoff 	1
scalar MyScenario.node[146].nic.mac1609_4 	SlotsBackoff 	1
scalar MyScenario.node[146].nic.mac1609_4 	NumInternalContention 	0
scalar MyScenario.node[146].nic.mac1609_4 	totalBusyTime 	0.004641
scalar MyScenario.node[146].veinsmobility 	startTime 	1
scalar MyScenario.node[146].veinsmobility 	totalTime 	131
scalar MyScenario.node[146].veinsmobility 	stopTime 	133
scalar MyScenario.node[146].veinsmobility 	minSpeed 	0.12311596638716
scalar MyScenario.node[146].veinsmobility 	maxSpeed 	13.866294829804
scalar MyScenario.node[146].veinsmobility 	totalDistance 	1351.1045436266
scalar MyScenario.node[146].veinsmobility 	totalCO2Emission 	452.28068533285
scalar MyScenario.node[11].appl 	generatedWSMs 	1
scalar MyScenario.node[11].appl 	receivedWSMs 	3
scalar MyScenario.node[11].appl 	generatedBSMs 	0
scalar MyScenario.node[11].appl 	receivedBSMs 	0
scalar MyScenario.node[11].appl 	generatedWSAs 	0
scalar MyScenario.node[11].appl 	receivedWSAs 	0
scalar MyScenario.node[11].nic.phy80211p 	busyTime 	1.3850746268657e-05
scalar MyScenario.node[11].nic.mac1609_4 	ReceivedUnicastPackets 	0
scalar MyScenario.node[11].nic.mac1609_4 	ReceivedBroadcasts 	3
scalar MyScenario.node[11].nic.mac1609_4 	SentPackets 	1
scalar MyScenario.node[11].nic.mac1609_4 	SNIRLostPackets 	5
scalar MyScenario.node[11].nic.mac1609_4 	RXTXLostPackets 	7
scalar MyScenario.node[11].nic.mac1609_4 	TotalLostPackets 	12
scalar MyScenario.node[11].nic.mac1609_4 	DroppedPacketsInMac 	0
scalar MyScenario.node[11].nic.mac1609_4 	TooLittleTime 	0
scalar MyScenario.node[11].nic.mac1609_4 	TimesIntoBackoff 	1
scalar MyScenario.node[11].nic.mac1609_4 	SlotsBackoff 	2
scalar MyScenario.node[11].nic.mac1609_4 	NumInternalContention 	0
scalar MyScenario.node[11].nic.mac1609_4 	totalBusyTime 	0.001393
scalar MyScenario.node[11].veinsmobility 	startTime 	1
scalar MyScenario.node[11].veinsmobility 	totalTime 	133
scalar MyScenario.node[11].veinsmobility 	stopTime 	135
scalar MyScenario.node[11].veinsmobility 	minSpeed 	1.136877938697
scalar MyScenario.node[11].veinsmobility 	maxSpeed 	13.884906821512
scalar MyScenario.node[11].veinsmobility 	totalDistance 	1466.9005764052
scalar MyScenario.node[11].veinsmobility 	totalCO2Emission 	410.21185855378
scalar MyScenario.node[43].appl 	generatedWSMs 	1
scalar MyScenario.node[43].appl 	receivedWSMs 	3
scalar MyScenario.node[43].appl 	generatedBSMs 	0
scalar MyScenario.node[43].appl 	receivedBSMs 	0
scalar MyScenario.node[43].appl 	generatedWSAs 	0
scalar MyScenario.node[43].appl 	receivedWSAs 	0
scalar MyScenario.node[43].nic.phy80211p 	busyTime 	3.9525925925926e-05
scalar MyScenario.node[43].nic.mac1609_4 	ReceivedUnicastPackets 	0
scalar MyScenario.node[43].nic.mac1609_4 	ReceivedBroadcasts 	3
scalar MyScenario.node[43].nic.mac1609_4 	SentPackets 	1
scalar MyScenario.node[43].nic.mac1609_4 	SNIRLostPackets 	20
scalar MyScenario.node[43].nic.mac1609_4 	RXTXLostPackets 	3
scalar MyScenario.node[43].nic.mac1609_4 	TotalLostPackets 	23
scalar MyScenario.node[43].nic.mac1609_4 	DroppedPacketsInMac 	0
scalar MyScenario.node[43].nic.mac1609_4 	TooLittleTime 	0
scalar MyScenario.node[43].nic.mac1609_4 	TimesIntoBackoff 	1
scalar MyScenario.node[43].nic.mac1609_4 	SlotsBackoff 	1
scalar MyScenario.node[43].nic.mac1609_4 	NumInternalContention 	0
scalar MyScenario.node[43].nic.mac1609_4 	totalBusyTime 	0.001857069501
scalar MyScenario.node[43].veinsmobility 	startTime 	1
scalar MyScenario.node[43].veinsmobility 	totalTime 	134
scalar MyScenario.node[43].veinsmobility 	stopTime 	136
scalar MyScenario.node[43].veinsmobility 	minSpeed 	0
scalar MyScenario.node[43].veinsmobility 	maxSpeed 	13.872149963002
scalar MyScenario.node[43].veinsmobility 	totalDistance 	1162.5250699418
scalar MyScenario.node[43].veinsmobility 	totalCO2Emission 	361.03181443157
scalar MyScenario.node[168].appl 	generatedWSMs 	1
scalar MyScenario.node[168].appl 	receivedWSMs 	7
scalar MyScenario.node[168].appl 	generatedBSMs 	0
scalar MyScenario.node[168].appl 	receivedBSMs 	0
scalar MyScenario.node[168].appl 	generatedWSAs 	0
scalar MyScenario.node[168].appl 	receivedWSAs 	0
scalar MyScenario.node[168].nic.phy80211p 	busyTime 	3.6909090909091e-05
scalar MyScenario.node[168].nic.mac1609_4 	ReceivedUnicastPackets 	0
scalar MyScenario.node[168].nic.mac1609_4 	ReceivedBroadcasts 	7
scalar MyScenario.node[168].nic.mac1609_4 	SentPackets 	1
scalar MyScenario.node[168].nic.mac1609_4 	SNIRLostPackets 	14
scalar MyScenario.node[168].nic.mac1609_4 	RXTXLostPackets 	12
scalar MyScenario.node[168].nic.mac1609_4 	TotalLostPackets 	26
scalar MyScenario.node[168].nic.mac1609_4 	DroppedPacketsInMac 	0
scalar MyScenario.node[168].nic.mac1609_4 	TooLittleTime 	0
scalar MyScenario.node[168].nic.mac1609_4 	TimesIntoBackoff 	1
scalar MyScenario.node[168].nic.mac1609_4 	SlotsBackoff 	3
scalar MyScenario.node[168].nic.mac1609_4 	NumInternalContention 	0
scalar MyScenario.node[168].nic.mac1609_4 	totalBusyTime 	0.003017062848
scalar MyScenario.node[168].veinsmobility 	startTime 	4
scalar MyScenario.node[168].veinsmobility 	totalTime 	131
scalar MyScenario.node[168].veinsmobility 	stopTime 	136
scalar MyScenario.node[168].veinsmobility 	minSpeed 	0.0021193019659252
scalar MyScenario.node[168].veinsmobility 	maxSpeed 	13.879846356972
scalar MyScenario.node[168].veinsmobility 	totalDistance 	1371.4500532567
scalar MyScenario.node[168].veinsmobility 	totalCO2Emission 	407.88751666162
scalar MyScenario.node[17].appl 	generatedWSMs 	1
scalar MyScenario.node[17].appl 	receivedWSMs 	2
scalar MyScenario.node[17].appl 	generatedBSMs 	0
scalar MyScenario.node[17].appl 	receivedBSMs 	0
scalar MyScenario.node[17].appl 	generatedWSAs 	0
scalar MyScenario.node[17].appl 	receivedWSAs 	0
scalar MyScenario.node[17].nic.phy80211p 	busyTime 	6.8235294117647e-06
scalar MyScenario.node[17].nic.mac1609_4 	ReceivedUnicastPackets 	0
scalar MyScenario.node[17].nic.mac1609_4 	ReceivedBroadcasts 	2
scalar MyScenario.node[17].nic.mac1609_4 	SentPackets 	1
scalar MyScenario.node[17].nic.mac1609_4 	SNIRLostPackets 	2
scalar MyScenario.node[17].nic.mac1609_4 	RXTXLostPackets 	4
scalar MyScenario.node[17].nic.mac1609_4 	TotalLostPackets 	6
scalar MyScenario.node[17].nic.mac1609_4 	DroppedPacketsInMac 	0
scalar MyScenario.node[17].nic.mac1609_4 	TooLittleTime 	0
scalar MyScenario.node[17].nic.mac1609_4 	TimesIntoBackoff 	1
scalar MyScenario.node[17].nic.mac1609_4 	SlotsBackoff 	3
scalar MyScenario.node[17].nic.mac1609_4 	NumInternalContention 	0
scalar MyScenario.node[17].nic.mac1609_4 	totalBusyTime 	0.001161036358
scalar MyScenario.node[17].veinsmobility 	startTime 	1
scalar MyScenario.node[17].veinsmobility 	totalTime 	135
scalar MyScenario.node[17].veinsmobility 	stopTime 	137
scalar MyScenario.node[17].veinsmobility 	minSpeed 	0.086734043446569
scalar MyScenario.node[17].veinsmobility 	maxSpeed 	13.84895987974
scalar MyScenario.node[17].veinsmobility 	totalDistance 	1386.2938947467
scalar MyScenario.node[17].veinsmobility 	totalCO2Emission 	447.99459099205
scalar MyScenario.node[4].appl 	generatedWSMs 	0
scalar MyScenario.node[4].appl 	receivedWSMs 	0
scalar MyScenario.node[4].appl 	generatedBSMs 	0
scalar MyScenario.node[4].appl 	receivedBSMs 	0
scalar MyScenario.node[4].appl 	generatedWSAs 	0
scalar MyScenario.node[4].appl 	receivedWSAs 	0
scalar MyScenario.node[4].nic.phy80211p 	busyTime 	2.3882352941176e-05
scalar MyScenario.node[4].nic.mac1609_4 	ReceivedUnicastPackets 	0
scalar MyScenario.node[4].nic.mac1609_4 	ReceivedBroadcasts 	0
scalar MyScenario.node[4].nic.mac1609_4 	SentPackets 	0
scalar MyScenario.node[4].nic.mac1609_4 	SNIRLostPackets 	14
scalar MyScenario.node[4].nic.mac1609_4 	RXTXLostPackets 	0
scalar MyScenario.node[4].nic.mac1609_4 	TotalLostPackets 	14
scalar MyScenario.node[4].nic.mac1609_4 	DroppedPacketsInMac 	0
scalar MyScenario.node[4].nic.mac1609_4 	TooLittleTime 	0
scalar MyScenario.node[4].nic.mac1609_4 	TimesIntoBackoff 	0
scalar MyScenario.node[4].nic.mac1609_4 	SlotsBackoff 	0
scalar MyScenario.node[4].nic.mac1609_4 	NumInternalContention 	0
scalar MyScenario.node[4].nic.mac1609_4 	totalBusyTime 	0.000928
scalar MyScenario.node[4].veinsmobility 	startTime 	1
scalar MyScenario.node[4].veinsmobility 	totalTime 	135
scalar MyScenario.node[4].veinsmobility 	stopTime 	137
scalar MyScenario.node[4].veinsmobility 	minSpeed 	1.5457434512209
scalar MyScenario.node[4].veinsmobility 	maxSpeed 	13.897033012379
scalar MyScenario.node[4].veinsmobility 	totalDistance 	1559.8869938111
scalar MyScenario.node[4].veinsmobility 	totalCO2Emission 	432.03490056087
scalar MyScenario.node[188].appl 	generatedWSMs 	1
scalar MyScenario.node[188].appl 	receivedWSMs 	10
scalar MyScenario.node[188].appl 	generatedBSMs 	0
scalar MyScenario.node[188].appl 	receivedBSMs 	0
scalar MyScenario.node[188].appl 	generatedWSAs 	0
scalar MyScenario.node[188].appl 	receivedWSAs 	0
scalar MyScenario.node[188].nic.phy80211p 	busyTime 	3.9235294117647e-05
scalar MyScenario.node[188].nic.mac1609_4 	ReceivedUnicastPackets 	0
scalar MyScenario.node[188].nic.mac1609_4 	ReceivedBroadcasts 	10
scalar MyScenario.node[188].nic.mac1609_4 	SentPackets 	1
scalar MyScenario.node[188].nic.mac1609_4 	SNIRLostPackets 	13
scalar MyScenario.node[188].nic.mac1609_4 	RXTXLostPackets 	9
scalar MyScenario.node[188].nic.mac1609_4 	TotalLostPackets 	22
scalar MyScenario.node[188].nic.mac1609_4 	DroppedPacketsInMac 	0
scalar MyScenario.node[188].nic.mac1609_4 	TooLittleTime 	0
scalar MyScenario.node[188].nic.mac1609_4 	TimesIntoBackoff 	1
scalar MyScenario.node[188].nic.mac1609_4 	SlotsBackoff 	1
scalar MyScenario.node[188].nic.mac1609_4 	NumInternalContention 	0
scalar MyScenario.node[188].nic.mac1609_4 	totalBusyTime 	0.003017019929
scalar MyScenario.node[188].veinsmobility 	startTime 	4
scalar MyScenario.node[188].veinsmobility 	totalTime 	135
scalar MyScenario.node[188].veinsmobility 	stopTime 	140
scalar MyScenario.node[188].veinsmobility 	minSpeed 	2.4705679418653e-08
scalar MyScenario.node[188].veinsmobility 	maxSpeed 	13.898121616454
scalar MyScenario.node[188].veinsmobility 	totalDistance 	1365.4164105525
scalar MyScenario.node[188].veinsmobility 	totalCO2Emission 	431.85498104274
scalar MyScenario.node[145].appl 	generatedWSMs 	1
scalar MyScenario.node[145].appl 	receivedWSMs 	5
scalar MyScenario.node[145].appl 	generatedBSMs 	0
scalar MyScenario.node[145].appl 	receivedBSMs 	0
scalar MyScenario.node[145].appl 	generatedWSAs 	0
scalar MyScenario.node[145].appl 	receivedWSAs 	0
scalar MyScenario.node[145].nic.phy80211p 	busyTime 	1.6111111111111e-05
scalar MyScenario.node[145].nic.mac1609_4 	ReceivedUnicastPackets 	0
scalar MyScenario.node[145].nic.mac1609_4 	ReceivedBroadcasts 	5
scalar MyScenario.node[145].nic.mac1609_4 	SentPackets 	1
scalar MyScenario.node[145].nic.mac1609_4 	SNIRLostPackets 	5
scalar MyScenario.node[145].nic.mac1609_4 	RXTXLostPackets 	12
scalar MyScenario.node[145].nic.mac1609_4 	TotalLostPackets 	17
scalar MyScenario.node[145].nic.mac1609_4 	DroppedPacketsInMac 	0
scalar MyScenario.node[145].nic.mac1609_4 	TooLittleTime 	0
scalar MyScenario.node[145].nic.mac1609_4 	TimesIntoBackoff 	1
scalar MyScenario.node[145].nic.mac1609_4 	SlotsBackoff 	0
scalar MyScenario.node[145].nic.mac1609_4 	NumInternalContention 	0
scalar MyScenario.node[145].nic.mac1609_4 	totalBusyTime 	0.002089003543
scalar MyScenario.node[145].veinsmobility 	startTime 	1
scalar MyScenario.node[145].veinsmobility 	totalTime 	143
scalar MyScenario.node[145].veinsmobility 	stopTime 	145
scalar MyScenario.node[145].veinsmobility 	minSpeed 	0.00085935496843836
scalar MyScenario.node[145].veinsmobility 	maxSpeed 	13.893658270221
scalar MyScenario.node[145].veinsmobility 	totalDistance 	1365.4391325672
scalar MyScenario.node[145].veinsmobility 	totalCO2Emission 	480.58153992873
scalar MyScenario.node[173].appl 	generatedWSMs 	1
scalar MyScenario.node[173].appl 	receivedWSMs 	1
scalar MyScenario.node[173].appl 	generatedBSMs 	0
scalar MyScenario.node[173].appl 	receivedBSMs 	0
scalar MyScenario.node[173].appl 	generatedWSAs 	0
scalar MyScenario.node[173].appl 	receivedWSAs 	0
scalar MyScenario.node[173].nic.phy80211p 	busyTime 	2.1090909090909e-05
scalar MyScenario.node[173].nic.mac1609_4 	ReceivedUnicastPackets 	0
scalar MyScenario.node[173].nic.mac1609_4 	ReceivedBroadcasts 	1
scalar MyScenario.node[173].nic.mac1609_4 	SentPackets 	1
scalar MyScenario.node[173].nic.mac1609_4 	SNIRLostPackets 	12
scalar MyScenario.node[173].nic.mac1609_4 	RXTXLostPackets 	0
scalar MyScenario.node[173].nic.mac1609_4 	TotalLostPackets 	12
scalar MyScenario.node[173].nic.mac1609_4 	DroppedPacketsInMac 	0
scalar MyScenario.node[173].nic.mac1609_4 	TooLittleTime 	0
scalar MyScenario.node[173].nic.mac1609_4 	TimesIntoBackoff 	1
scalar MyScenario.node[173].nic.mac1609_4 	SlotsBackoff 	2
scalar MyScenario.node[173].nic.mac1609_4 	NumInternalContention 	0
scalar MyScenario.node[173].nic.mac1609_4 	totalBusyTime 	0.001393
scalar MyScenario.node[173].veinsmobility 	startTime 	4
scalar MyScenario.node[173].veinsmobility 	totalTime 	142
scalar MyScenario.node[173].veinsmobility 	stopTime 	147
scalar MyScenario.node[173].veinsmobility 	minSpeed 	0.12501125780012
scalar MyScenario.node[173].veinsmobility 	maxSpeed 	13.857049769606
scalar MyScenario.node[173].veinsmobility 	totalDistance 	1571.8944292836
scalar MyScenario.node[173].veinsmobility 	totalCO2Emission 	418.15835776943
scalar MyScenario.node[52].appl 	generatedWSMs 	1
scalar MyScenario.node[52].appl 	receivedWSMs 	5
scalar MyScenario.node[52].appl 	generatedBSMs 	0
scalar MyScenario.node[52].appl 	receivedBSMs 	0
scalar MyScenario.node[52].appl 	generatedWSAs 	0
scalar MyScenario.node[52].appl 	receivedWSAs 	0
scalar MyScenario.node[52].nic.phy80211p 	busyTime 	3.012987012987e-05
scalar MyScenario.node[52].nic.mac1609_4 	ReceivedUnicastPackets 	0
scalar MyScenario.node[52].nic.mac1609_4 	ReceivedBroadcasts 	5
scalar MyScenario.node[52].nic.mac1609_4 	SentPackets 	1
scalar MyScenario.node[52].nic.mac1609_4 	SNIRLostPackets 	15
scalar MyScenario.node[52].nic.mac1609_4 	RXTXLostPackets 	6
scalar MyScenario.node[52].nic.mac1609_4 	TotalLostPackets 	21
scalar MyScenario.node[52].nic.mac1609_4 	DroppedPacketsInMac 	0
scalar MyScenario.node[52].nic.mac1609_4 	TooLittleTime 	0
scalar MyScenario.node[52].nic.mac1609_4 	TimesIntoBackoff 	1
scalar MyScenario.node[52].nic.mac1609_4 	SlotsBackoff 	0
scalar MyScenario.node[52].nic.mac1609_4 	NumInternalContention 	0
scalar MyScenario.node[52].nic.mac1609_4 	totalBusyTime 	0.002321
scalar MyScenario.node[52].veinsmobility 	startTime 	1
scalar MyScenario.node[52].veinsmobility 	totalTime 	153
scalar MyScenario.node[52].veinsmobility 	stopTime 	155
scalar MyScenario.node[52].veinsmobility 	minSpeed 	0.057626985430162
scalar MyScenario.node[52].veinsmobility 	maxSpeed 	13.893398571829
scalar MyScenario.node[52].veinsmobility 	totalDistance 	1568.3612947216
scalar MyScenario.node[52].veinsmobility 	totalCO2Emission 	466.18591347671
