version 2
run General-20-20170829-17:40:30-8100
attr configname General
attr datetime 20170829-17:40:30
attr density 300
attr experiment General
attr inifile omnetpp.ini
attr iterationvars $density=300
attr iterationvars2 "$density=300, $repetition=0"
attr measurement $density=300
attr network com.liborio.pi.MyScenario
attr processid 8100
attr repetition 0
attr replication #0
attr resultdir results
attr runnumber 20
attr seedset 0
param **.coreDebug false
param **.debug false
param *.**.nic.mac1609_4.bitrate 6Mbps
param *.**.nic.mac1609_4.txPower 20mW
param *.**.nic.mac1609_4.useServiceChannel true
param *.**.nic.phy80211p.analogueModels "xmldoc(\"config.xml\")"
param *.**.nic.phy80211p.antenna "xmldoc(\"antenna.xml\", \"/root/Antenna[@id='monopole']\")"
param *.**.nic.phy80211p.decider "xmldoc(\"config.xml\")"
param *.**.nic.phy80211p.sensitivity -84.39dBm
param *.**.nic.phy80211p.thermalNoise -110dBm
param *.**.nic.phy80211p.usePropagationDelay true
param *.**.nic.phy80211p.useThermalNoise true
param *.annotations.draw true
param *.connectionManager.drawMaxIntfDist false
param *.connectionManager.maxInterfDist 2600m
param *.connectionManager.sendDirect true
param *.manager.autoShutdown true
param *.manager.host "\"localhost\""
param *.manager.launchConfig "xmldoc(string(${density = 100, 200, 300, 400})+\"_\"+ string(${repetition})+\".launchd.xml\")"
param *.manager.port 9999
param *.manager.updateInterval 1s
param *.node[*].appl.beaconInterval 1s
param *.node[*].appl.dataOnSch true
param *.node[*].appl.headerLength "80 bit"
param *.node[*].appl.isSource false
param *.node[*].appl.numMsgs 100
param *.node[*].appl.sendBeacons false
param *.node[*].appl.stopTrafficTime 130s
param *.node[*].appl.wsmInterval 3s
param *.node[*].applType "\"Flooding\""
param *.node[*].veinsmobility.x 0
param *.node[*].veinsmobility.y 0
param *.node[*].veinsmobility.z 1.895
param *.node[*].veinsmobilityType.debug true
param *.node[0].appl.isSource true
param *.playgroundSizeX 2500m
param *.playgroundSizeY 2500m
param *.playgroundSizeZ 50m

scalar . 	density 	300
scalar MyScenario.node[3].appl 	generatedWSMs 	0
scalar MyScenario.node[3].appl 	receivedWSMs 	0
scalar MyScenario.node[3].appl 	generatedBSMs 	0
scalar MyScenario.node[3].appl 	receivedBSMs 	0
scalar MyScenario.node[3].appl 	generatedWSAs 	0
scalar MyScenario.node[3].appl 	receivedWSAs 	0
scalar MyScenario.node[3].nic.phy80211p 	busyTime 	4.64e-05
scalar MyScenario.node[3].nic.mac1609_4 	ReceivedUnicastPackets 	0
scalar MyScenario.node[3].nic.mac1609_4 	ReceivedBroadcasts 	0
scalar MyScenario.node[3].nic.mac1609_4 	SentPackets 	0
scalar MyScenario.node[3].nic.mac1609_4 	SNIRLostPackets 	2
scalar MyScenario.node[3].nic.mac1609_4 	RXTXLostPackets 	0
scalar MyScenario.node[3].nic.mac1609_4 	TotalLostPackets 	2
scalar MyScenario.node[3].nic.mac1609_4 	DroppedPacketsInMac 	0
scalar MyScenario.node[3].nic.mac1609_4 	TooLittleTime 	0
scalar MyScenario.node[3].nic.mac1609_4 	TimesIntoBackoff 	0
scalar MyScenario.node[3].nic.mac1609_4 	SlotsBackoff 	0
scalar MyScenario.node[3].nic.mac1609_4 	NumInternalContention 	0
scalar MyScenario.node[3].nic.mac1609_4 	totalBusyTime 	0.000232
scalar MyScenario.node[3].veinsmobility 	startTime 	1
scalar MyScenario.node[3].veinsmobility 	totalTime 	9
scalar MyScenario.node[3].veinsmobility 	stopTime 	11
scalar MyScenario.node[3].veinsmobility 	minSpeed 	1.9526779044652
scalar MyScenario.node[3].veinsmobility 	maxSpeed 	13.080929243588
scalar MyScenario.node[3].veinsmobility 	totalDistance 	83.009970742697
scalar MyScenario.node[3].veinsmobility 	totalCO2Emission 	35.629307115018
scalar MyScenario.node[188].appl 	generatedWSMs 	0
scalar MyScenario.node[188].appl 	receivedWSMs 	0
scalar MyScenario.node[188].appl 	generatedBSMs 	0
scalar MyScenario.node[188].appl 	receivedBSMs 	0
scalar MyScenario.node[188].appl 	generatedWSAs 	0
scalar MyScenario.node[188].appl 	receivedWSAs 	0
scalar MyScenario.node[188].nic.phy80211p 	busyTime 	0.00018981818181818
scalar MyScenario.node[188].nic.mac1609_4 	ReceivedUnicastPackets 	0
scalar MyScenario.node[188].nic.mac1609_4 	ReceivedBroadcasts 	0
scalar MyScenario.node[188].nic.mac1609_4 	SentPackets 	0
scalar MyScenario.node[188].nic.mac1609_4 	SNIRLostPackets 	9
scalar MyScenario.node[188].nic.mac1609_4 	RXTXLostPackets 	0
scalar MyScenario.node[188].nic.mac1609_4 	TotalLostPackets 	9
scalar MyScenario.node[188].nic.mac1609_4 	DroppedPacketsInMac 	0
scalar MyScenario.node[188].nic.mac1609_4 	TooLittleTime 	0
scalar MyScenario.node[188].nic.mac1609_4 	TimesIntoBackoff 	0
scalar MyScenario.node[188].nic.mac1609_4 	SlotsBackoff 	0
scalar MyScenario.node[188].nic.mac1609_4 	NumInternalContention 	0
scalar MyScenario.node[188].nic.mac1609_4 	totalBusyTime 	0.000928
scalar MyScenario.node[188].veinsmobility 	startTime 	1
scalar MyScenario.node[188].veinsmobility 	totalTime 	10
scalar MyScenario.node[188].veinsmobility 	stopTime 	12
scalar MyScenario.node[188].veinsmobility 	minSpeed 	1.9303800916998
scalar MyScenario.node[188].veinsmobility 	maxSpeed 	13.783412517398
scalar MyScenario.node[188].veinsmobility 	totalDistance 	93.533431076332
scalar MyScenario.node[188].veinsmobility 	totalCO2Emission 	39.985122722318
scalar MyScenario.node[166].appl 	generatedWSMs 	1
scalar MyScenario.node[166].appl 	receivedWSMs 	1
scalar MyScenario.node[166].appl 	generatedBSMs 	0
scalar MyScenario.node[166].appl 	receivedBSMs 	0
scalar MyScenario.node[166].appl 	generatedWSAs 	0
scalar MyScenario.node[166].appl 	receivedWSAs 	0
scalar MyScenario.node[166].nic.phy80211p 	busyTime 	0.00018981818181818
scalar MyScenario.node[166].nic.mac1609_4 	ReceivedUnicastPackets 	0
scalar MyScenario.node[166].nic.mac1609_4 	ReceivedBroadcasts 	1
scalar MyScenario.node[166].nic.mac1609_4 	SentPackets 	1
scalar MyScenario.node[166].nic.mac1609_4 	SNIRLostPackets 	8
scalar MyScenario.node[166].nic.mac1609_4 	RXTXLostPackets 	12
scalar MyScenario.node[166].nic.mac1609_4 	TotalLostPackets 	20
scalar MyScenario.node[166].nic.mac1609_4 	DroppedPacketsInMac 	0
scalar MyScenario.node[166].nic.mac1609_4 	TooLittleTime 	0
scalar MyScenario.node[166].nic.mac1609_4 	TimesIntoBackoff 	1
scalar MyScenario.node[166].nic.mac1609_4 	SlotsBackoff 	1
scalar MyScenario.node[166].nic.mac1609_4 	NumInternalContention 	0
scalar MyScenario.node[166].nic.mac1609_4 	totalBusyTime 	0.001161002686
scalar MyScenario.node[166].veinsmobility 	startTime 	1
scalar MyScenario.node[166].veinsmobility 	totalTime 	10
scalar MyScenario.node[166].veinsmobility 	stopTime 	12
scalar MyScenario.node[166].veinsmobility 	minSpeed 	1.8430865448434
scalar MyScenario.node[166].veinsmobility 	maxSpeed 	13.15183063359
scalar MyScenario.node[166].veinsmobility 	totalDistance 	85.742941292363
scalar MyScenario.node[166].veinsmobility 	totalCO2Emission 	37.017821383944
scalar MyScenario.node[4].appl 	generatedWSMs 	0
scalar MyScenario.node[4].appl 	receivedWSMs 	0
scalar MyScenario.node[4].appl 	generatedBSMs 	0
scalar MyScenario.node[4].appl 	receivedBSMs 	0
scalar MyScenario.node[4].appl 	generatedWSAs 	0
scalar MyScenario.node[4].appl 	receivedWSAs 	0
scalar MyScenario.node[4].nic.phy80211p 	busyTime 	0.00033745454545455
scalar MyScenario.node[4].nic.mac1609_4 	ReceivedUnicastPackets 	0
scalar MyScenario.node[4].nic.mac1609_4 	ReceivedBroadcasts 	0
scalar MyScenario.node[4].nic.mac1609_4 	SentPackets 	0
scalar MyScenario.node[4].nic.mac1609_4 	SNIRLostPackets 	16
scalar MyScenario.node[4].nic.mac1609_4 	RXTXLostPackets 	0
scalar MyScenario.node[4].nic.mac1609_4 	TotalLostPackets 	16
scalar MyScenario.node[4].nic.mac1609_4 	DroppedPacketsInMac 	0
scalar MyScenario.node[4].nic.mac1609_4 	TooLittleTime 	0
scalar MyScenario.node[4].nic.mac1609_4 	TimesIntoBackoff 	0
scalar MyScenario.node[4].nic.mac1609_4 	SlotsBackoff 	0
scalar MyScenario.node[4].nic.mac1609_4 	NumInternalContention 	0
scalar MyScenario.node[4].nic.mac1609_4 	totalBusyTime 	0.000928
scalar MyScenario.node[4].veinsmobility 	startTime 	1
scalar MyScenario.node[4].veinsmobility 	totalTime 	10
scalar MyScenario.node[4].veinsmobility 	stopTime 	12
scalar MyScenario.node[4].veinsmobility 	minSpeed 	1.3982552832924
scalar MyScenario.node[4].veinsmobility 	maxSpeed 	13.365856386395
scalar MyScenario.node[4].veinsmobility 	totalDistance 	91.671365821801
scalar MyScenario.node[4].veinsmobility 	totalCO2Emission 	38.809521247049
scalar MyScenario.node[263].appl 	generatedWSMs 	0
scalar MyScenario.node[263].appl 	receivedWSMs 	0
scalar MyScenario.node[263].appl 	generatedBSMs 	0
scalar MyScenario.node[263].appl 	receivedBSMs 	0
scalar MyScenario.node[263].appl 	generatedWSAs 	0
scalar MyScenario.node[263].appl 	receivedWSAs 	0
scalar MyScenario.node[263].nic.phy80211p 	busyTime 	0
scalar MyScenario.node[263].nic.mac1609_4 	ReceivedUnicastPackets 	0
scalar MyScenario.node[263].nic.mac1609_4 	ReceivedBroadcasts 	0
scalar MyScenario.node[263].nic.mac1609_4 	SentPackets 	0
scalar MyScenario.node[263].nic.mac1609_4 	SNIRLostPackets 	0
scalar MyScenario.node[263].nic.mac1609_4 	RXTXLostPackets 	0
scalar MyScenario.node[263].nic.mac1609_4 	TotalLostPackets 	0
scalar MyScenario.node[263].nic.mac1609_4 	DroppedPacketsInMac 	0
scalar MyScenario.node[263].nic.mac1609_4 	TooLittleTime 	0
scalar MyScenario.node[263].nic.mac1609_4 	TimesIntoBackoff 	0
scalar MyScenario.node[263].nic.mac1609_4 	SlotsBackoff 	0
scalar MyScenario.node[263].nic.mac1609_4 	NumInternalContention 	0
scalar MyScenario.node[263].nic.mac1609_4 	totalBusyTime 	0
scalar MyScenario.node[263].veinsmobility 	startTime 	4
scalar MyScenario.node[263].veinsmobility 	totalTime 	10
scalar MyScenario.node[263].veinsmobility 	stopTime 	15
scalar MyScenario.node[263].veinsmobility 	minSpeed 	1.8454031964318
scalar MyScenario.node[263].veinsmobility 	maxSpeed 	13.524187262822
scalar MyScenario.node[263].veinsmobility 	totalDistance 	91.313330557476
scalar MyScenario.node[263].veinsmobility 	totalCO2Emission 	39.775669190637
scalar MyScenario.node[189].appl 	generatedWSMs 	0
scalar MyScenario.node[189].appl 	receivedWSMs 	0
scalar MyScenario.node[189].appl 	generatedBSMs 	0
scalar MyScenario.node[189].appl 	receivedBSMs 	0
scalar MyScenario.node[189].appl 	generatedWSAs 	0
scalar MyScenario.node[189].appl 	receivedWSAs 	0
scalar MyScenario.node[189].nic.phy80211p 	busyTime 	0.00013647058823529
scalar MyScenario.node[189].nic.mac1609_4 	ReceivedUnicastPackets 	0
scalar MyScenario.node[189].nic.mac1609_4 	ReceivedBroadcasts 	0
scalar MyScenario.node[189].nic.mac1609_4 	SentPackets 	0
scalar MyScenario.node[189].nic.mac1609_4 	SNIRLostPackets 	10
scalar MyScenario.node[189].nic.mac1609_4 	RXTXLostPackets 	0
scalar MyScenario.node[189].nic.mac1609_4 	TotalLostPackets 	10
scalar MyScenario.node[189].nic.mac1609_4 	DroppedPacketsInMac 	0
scalar MyScenario.node[189].nic.mac1609_4 	TooLittleTime 	0
scalar MyScenario.node[189].nic.mac1609_4 	TimesIntoBackoff 	0
scalar MyScenario.node[189].nic.mac1609_4 	SlotsBackoff 	0
scalar MyScenario.node[189].nic.mac1609_4 	NumInternalContention 	0
scalar MyScenario.node[189].nic.mac1609_4 	totalBusyTime 	0.000464
scalar MyScenario.node[189].veinsmobility 	startTime 	1
scalar MyScenario.node[189].veinsmobility 	totalTime 	16
scalar MyScenario.node[189].veinsmobility 	stopTime 	18
scalar MyScenario.node[189].veinsmobility 	minSpeed 	2.2572825225536
scalar MyScenario.node[189].veinsmobility 	maxSpeed 	13.786049319757
scalar MyScenario.node[189].veinsmobility 	totalDistance 	174.20275304937
scalar MyScenario.node[189].veinsmobility 	totalCO2Emission 	52.331690458977
scalar MyScenario.node[125].appl 	generatedWSMs 	0
scalar MyScenario.node[125].appl 	receivedWSMs 	0
scalar MyScenario.node[125].appl 	generatedBSMs 	0
scalar MyScenario.node[125].appl 	receivedBSMs 	0
scalar MyScenario.node[125].appl 	generatedWSAs 	0
scalar MyScenario.node[125].appl 	receivedWSAs 	0
scalar MyScenario.node[125].nic.phy80211p 	busyTime 	0
scalar MyScenario.node[125].nic.mac1609_4 	ReceivedUnicastPackets 	0
scalar MyScenario.node[125].nic.mac1609_4 	ReceivedBroadcasts 	0
scalar MyScenario.node[125].nic.mac1609_4 	SentPackets 	0
scalar MyScenario.node[125].nic.mac1609_4 	SNIRLostPackets 	0
scalar MyScenario.node[125].nic.mac1609_4 	RXTXLostPackets 	0
scalar MyScenario.node[125].nic.mac1609_4 	TotalLostPackets 	0
scalar MyScenario.node[125].nic.mac1609_4 	DroppedPacketsInMac 	0
scalar MyScenario.node[125].nic.mac1609_4 	TooLittleTime 	0
scalar MyScenario.node[125].nic.mac1609_4 	TimesIntoBackoff 	0
scalar MyScenario.node[125].nic.mac1609_4 	SlotsBackoff 	0
scalar MyScenario.node[125].nic.mac1609_4 	NumInternalContention 	0
scalar MyScenario.node[125].nic.mac1609_4 	totalBusyTime 	0
scalar MyScenario.node[125].veinsmobility 	startTime 	1
scalar MyScenario.node[125].veinsmobility 	totalTime 	19
scalar MyScenario.node[125].veinsmobility 	stopTime 	21
scalar MyScenario.node[125].veinsmobility 	minSpeed 	1.3263571746415
scalar MyScenario.node[125].veinsmobility 	maxSpeed 	13.888419031166
scalar MyScenario.node[125].veinsmobility 	totalDistance 	181.10033281482
scalar MyScenario.node[125].veinsmobility 	totalCO2Emission 	75.503977123014
scalar MyScenario.node[130].appl 	generatedWSMs 	1
scalar MyScenario.node[130].appl 	receivedWSMs 	1
scalar MyScenario.node[130].appl 	generatedBSMs 	0
scalar MyScenario.node[130].appl 	receivedBSMs 	0
scalar MyScenario.node[130].appl 	generatedWSAs 	0
scalar MyScenario.node[130].appl 	receivedWSAs 	0
scalar MyScenario.node[130].nic.phy80211p 	busyTime 	0.00011047619047619
scalar MyScenario.node[130].nic.mac1609_4 	ReceivedUnicastPackets 	0
scalar MyScenario.node[130].nic.mac1609_4 	ReceivedBroadcasts 	1
scalar MyScenario.node[130].nic.mac1609_4 	SentPackets 	1
scalar MyScenario.node[130].nic.mac1609_4 	SNIRLostPackets 	9
scalar MyScenario.node[130].nic.mac1609_4 	RXTXLostPackets 	10
scalar MyScenario.node[130].nic.mac1609_4 	TotalLostPackets 	19
scalar MyScenario.node[130].nic.mac1609_4 	DroppedPacketsInMac 	0
scalar MyScenario.node[130].nic.mac1609_4 	TooLittleTime 	0
scalar MyScenario.node[130].nic.mac1609_4 	TimesIntoBackoff 	1
scalar MyScenario.node[130].nic.mac1609_4 	SlotsBackoff 	1
scalar MyScenario.node[130].nic.mac1609_4 	NumInternalContention 	0
scalar MyScenario.node[130].nic.mac1609_4 	totalBusyTime 	0.000929134972
scalar MyScenario.node[130].veinsmobility 	startTime 	1
scalar MyScenario.node[130].veinsmobility 	totalTime 	20
scalar MyScenario.node[130].veinsmobility 	stopTime 	22
scalar MyScenario.node[130].veinsmobility 	minSpeed 	1.7850905274507
scalar MyScenario.node[130].veinsmobility 	maxSpeed 	13.873999793851
scalar MyScenario.node[130].veinsmobility 	totalDistance 	175.15342868712
scalar MyScenario.node[130].veinsmobility 	totalCO2Emission 	82.936467933317
scalar MyScenario.node[277].appl 	generatedWSMs 	1
scalar MyScenario.node[277].appl 	receivedWSMs 	4
scalar MyScenario.node[277].appl 	generatedBSMs 	0
scalar MyScenario.node[277].appl 	receivedBSMs 	0
scalar MyScenario.node[277].appl 	generatedWSAs 	0
scalar MyScenario.node[277].appl 	receivedWSAs 	0
scalar MyScenario.node[277].nic.phy80211p 	busyTime 	0.00019333333333333
scalar MyScenario.node[277].nic.mac1609_4 	ReceivedUnicastPackets 	0
scalar MyScenario.node[277].nic.mac1609_4 	ReceivedBroadcasts 	4
scalar MyScenario.node[277].nic.mac1609_4 	SentPackets 	1
scalar MyScenario.node[277].nic.mac1609_4 	SNIRLostPackets 	11
scalar MyScenario.node[277].nic.mac1609_4 	RXTXLostPackets 	7
scalar MyScenario.node[277].nic.mac1609_4 	TotalLostPackets 	18
scalar MyScenario.node[277].nic.mac1609_4 	DroppedPacketsInMac 	0
scalar MyScenario.node[277].nic.mac1609_4 	TooLittleTime 	0
scalar MyScenario.node[277].nic.mac1609_4 	TimesIntoBackoff 	1
scalar MyScenario.node[277].nic.mac1609_4 	SlotsBackoff 	0
scalar MyScenario.node[277].nic.mac1609_4 	NumInternalContention 	0
scalar MyScenario.node[277].nic.mac1609_4 	totalBusyTime 	0.001857
scalar MyScenario.node[277].veinsmobility 	startTime 	7
scalar MyScenario.node[277].veinsmobility 	totalTime 	17
scalar MyScenario.node[277].veinsmobility 	stopTime 	25
scalar MyScenario.node[277].veinsmobility 	minSpeed 	0.75892471617926
scalar MyScenario.node[277].veinsmobility 	maxSpeed 	13.795396262291
scalar MyScenario.node[277].veinsmobility 	totalDistance 	178.46740959172
scalar MyScenario.node[277].veinsmobility 	totalCO2Emission 	55.273630550748
scalar MyScenario.node[284].appl 	generatedWSMs 	0
scalar MyScenario.node[284].appl 	receivedWSMs 	0
scalar MyScenario.node[284].appl 	generatedBSMs 	0
scalar MyScenario.node[284].appl 	receivedBSMs 	0
scalar MyScenario.node[284].appl 	generatedWSAs 	0
scalar MyScenario.node[284].appl 	receivedWSAs 	0
scalar MyScenario.node[284].nic.phy80211p 	busyTime 	0
scalar MyScenario.node[284].nic.mac1609_4 	ReceivedUnicastPackets 	0
scalar MyScenario.node[284].nic.mac1609_4 	ReceivedBroadcasts 	0
scalar MyScenario.node[284].nic.mac1609_4 	SentPackets 	0
scalar MyScenario.node[284].nic.mac1609_4 	SNIRLostPackets 	0
scalar MyScenario.node[284].nic.mac1609_4 	RXTXLostPackets 	0
scalar MyScenario.node[284].nic.mac1609_4 	TotalLostPackets 	0
scalar MyScenario.node[284].nic.mac1609_4 	DroppedPacketsInMac 	0
scalar MyScenario.node[284].nic.mac1609_4 	TooLittleTime 	0
scalar MyScenario.node[284].nic.mac1609_4 	TimesIntoBackoff 	0
scalar MyScenario.node[284].nic.mac1609_4 	SlotsBackoff 	0
scalar MyScenario.node[284].nic.mac1609_4 	NumInternalContention 	0
scalar MyScenario.node[284].nic.mac1609_4 	totalBusyTime 	0
scalar MyScenario.node[284].veinsmobility 	startTime 	7
scalar MyScenario.node[284].veinsmobility 	totalTime 	17
scalar MyScenario.node[284].veinsmobility 	stopTime 	25
scalar MyScenario.node[284].veinsmobility 	minSpeed 	1.6489981854567
scalar MyScenario.node[284].veinsmobility 	maxSpeed 	13.844966226025
scalar MyScenario.node[284].veinsmobility 	totalDistance 	181.97016747161
scalar MyScenario.node[284].veinsmobility 	totalCO2Emission 	59.035340758931
scalar MyScenario.node[24].appl 	generatedWSMs 	0
scalar MyScenario.node[24].appl 	receivedWSMs 	0
scalar MyScenario.node[24].appl 	generatedBSMs 	0
scalar MyScenario.node[24].appl 	receivedBSMs 	0
scalar MyScenario.node[24].appl 	generatedWSAs 	0
scalar MyScenario.node[24].appl 	receivedWSAs 	0
scalar MyScenario.node[24].nic.phy80211p 	busyTime 	0
scalar MyScenario.node[24].nic.mac1609_4 	ReceivedUnicastPackets 	0
scalar MyScenario.node[24].nic.mac1609_4 	ReceivedBroadcasts 	0
scalar MyScenario.node[24].nic.mac1609_4 	SentPackets 	0
scalar MyScenario.node[24].nic.mac1609_4 	SNIRLostPackets 	0
scalar MyScenario.node[24].nic.mac1609_4 	RXTXLostPackets 	0
scalar MyScenario.node[24].nic.mac1609_4 	TotalLostPackets 	0
scalar MyScenario.node[24].nic.mac1609_4 	DroppedPacketsInMac 	0
scalar MyScenario.node[24].nic.mac1609_4 	TooLittleTime 	0
scalar MyScenario.node[24].nic.mac1609_4 	TimesIntoBackoff 	0
scalar MyScenario.node[24].nic.mac1609_4 	SlotsBackoff 	0
scalar MyScenario.node[24].nic.mac1609_4 	NumInternalContention 	0
scalar MyScenario.node[24].nic.mac1609_4 	totalBusyTime 	0
scalar MyScenario.node[24].veinsmobility 	startTime 	1
scalar MyScenario.node[24].veinsmobility 	totalTime 	25
scalar MyScenario.node[24].veinsmobility 	stopTime 	27
scalar MyScenario.node[24].veinsmobility 	minSpeed 	1.7594625236699
scalar MyScenario.node[24].veinsmobility 	maxSpeed 	13.888587104739
scalar MyScenario.node[24].veinsmobility 	totalDistance 	286.1571463126
scalar MyScenario.node[24].veinsmobility 	totalCO2Emission 	72.217133419996
scalar MyScenario.node[165].appl 	generatedWSMs 	1
scalar MyScenario.node[165].appl 	receivedWSMs 	1
scalar MyScenario.node[165].appl 	generatedBSMs 	0
scalar MyScenario.node[165].appl 	receivedBSMs 	0
scalar MyScenario.node[165].appl 	generatedWSAs 	0
scalar MyScenario.node[165].appl 	receivedWSAs 	0
scalar MyScenario.node[165].nic.phy80211p 	busyTime 	0.00024918518518518
scalar MyScenario.node[165].nic.mac1609_4 	ReceivedUnicastPackets 	0
scalar MyScenario.node[165].nic.mac1609_4 	ReceivedBroadcasts 	1
scalar MyScenario.node[165].nic.mac1609_4 	SentPackets 	1
scalar MyScenario.node[165].nic.mac1609_4 	SNIRLostPackets 	28
scalar MyScenario.node[165].nic.mac1609_4 	RXTXLostPackets 	0
scalar MyScenario.node[165].nic.mac1609_4 	TotalLostPackets 	28
scalar MyScenario.node[165].nic.mac1609_4 	DroppedPacketsInMac 	0
scalar MyScenario.node[165].nic.mac1609_4 	TooLittleTime 	0
scalar MyScenario.node[165].nic.mac1609_4 	TimesIntoBackoff 	1
scalar MyScenario.node[165].nic.mac1609_4 	SlotsBackoff 	3
scalar MyScenario.node[165].nic.mac1609_4 	NumInternalContention 	0
scalar MyScenario.node[165].nic.mac1609_4 	totalBusyTime 	0.001857
scalar MyScenario.node[165].veinsmobility 	startTime 	1
scalar MyScenario.node[165].veinsmobility 	totalTime 	26
scalar MyScenario.node[165].veinsmobility 	stopTime 	28
scalar MyScenario.node[165].veinsmobility 	minSpeed 	2.3849309334066
scalar MyScenario.node[165].veinsmobility 	maxSpeed 	13.847938054404
scalar MyScenario.node[165].veinsmobility 	totalDistance 	278.29545217336
scalar MyScenario.node[165].veinsmobility 	totalCO2Emission 	87.525751149485
scalar MyScenario.node[21].appl 	generatedWSMs 	0
scalar MyScenario.node[21].appl 	receivedWSMs 	0
scalar MyScenario.node[21].appl 	generatedBSMs 	0
scalar MyScenario.node[21].appl 	receivedBSMs 	0
scalar MyScenario.node[21].appl 	generatedWSAs 	0
scalar MyScenario.node[21].appl 	receivedWSAs 	0
scalar MyScenario.node[21].nic.phy80211p 	busyTime 	7.2e-05
scalar MyScenario.node[21].nic.mac1609_4 	ReceivedUnicastPackets 	0
scalar MyScenario.node[21].nic.mac1609_4 	ReceivedBroadcasts 	0
scalar MyScenario.node[21].nic.mac1609_4 	SentPackets 	0
scalar MyScenario.node[21].nic.mac1609_4 	SNIRLostPackets 	9
scalar MyScenario.node[21].nic.mac1609_4 	RXTXLostPackets 	0
scalar MyScenario.node[21].nic.mac1609_4 	TotalLostPackets 	9
scalar MyScenario.node[21].nic.mac1609_4 	DroppedPacketsInMac 	0
scalar MyScenario.node[21].nic.mac1609_4 	TooLittleTime 	0
scalar MyScenario.node[21].nic.mac1609_4 	TimesIntoBackoff 	0
scalar MyScenario.node[21].nic.mac1609_4 	SlotsBackoff 	0
scalar MyScenario.node[21].nic.mac1609_4 	NumInternalContention 	0
scalar MyScenario.node[21].nic.mac1609_4 	totalBusyTime 	0.000232
scalar MyScenario.node[21].veinsmobility 	startTime 	1
scalar MyScenario.node[21].veinsmobility 	totalTime 	28
scalar MyScenario.node[21].veinsmobility 	stopTime 	30
scalar MyScenario.node[21].veinsmobility 	minSpeed 	1.27284601364
scalar MyScenario.node[21].veinsmobility 	maxSpeed 	13.782180128293
scalar MyScenario.node[21].veinsmobility 	totalDistance 	274.94112951257
scalar MyScenario.node[21].veinsmobility 	totalCO2Emission 	97.414112122705
scalar MyScenario.node[170].appl 	generatedWSMs 	0
scalar MyScenario.node[170].appl 	receivedWSMs 	0
scalar MyScenario.node[170].appl 	generatedBSMs 	0
scalar MyScenario.node[170].appl 	receivedBSMs 	0
scalar MyScenario.node[170].appl 	generatedWSAs 	0
scalar MyScenario.node[170].appl 	receivedWSAs 	0
scalar MyScenario.node[170].nic.phy80211p 	busyTime 	6.3272727272727e-05
scalar MyScenario.node[170].nic.mac1609_4 	ReceivedUnicastPackets 	0
scalar MyScenario.node[170].nic.mac1609_4 	ReceivedBroadcasts 	0
scalar MyScenario.node[170].nic.mac1609_4 	SentPackets 	0
scalar MyScenario.node[170].nic.mac1609_4 	SNIRLostPackets 	9
scalar MyScenario.node[170].nic.mac1609_4 	RXTXLostPackets 	0
scalar MyScenario.node[170].nic.mac1609_4 	TotalLostPackets 	9
scalar MyScenario.node[170].nic.mac1609_4 	DroppedPacketsInMac 	0
scalar MyScenario.node[170].nic.mac1609_4 	TooLittleTime 	0
scalar MyScenario.node[170].nic.mac1609_4 	TimesIntoBackoff 	0
scalar MyScenario.node[170].nic.mac1609_4 	SlotsBackoff 	0
scalar MyScenario.node[170].nic.mac1609_4 	NumInternalContention 	0
scalar MyScenario.node[170].nic.mac1609_4 	totalBusyTime 	0.000464
scalar MyScenario.node[170].veinsmobility 	startTime 	1
scalar MyScenario.node[170].veinsmobility 	totalTime 	32
scalar MyScenario.node[170].veinsmobility 	stopTime 	34
scalar MyScenario.node[170].veinsmobility 	minSpeed 	0.0018862742836051
scalar MyScenario.node[170].veinsmobility 	maxSpeed 	13.767972130328
scalar MyScenario.node[170].veinsmobility 	totalDistance 	265.59074588431
scalar MyScenario.node[170].veinsmobility 	totalCO2Emission 	92.969917307715
scalar MyScenario.node[141].appl 	generatedWSMs 	0
scalar MyScenario.node[141].appl 	receivedWSMs 	0
scalar MyScenario.node[141].appl 	generatedBSMs 	0
scalar MyScenario.node[141].appl 	receivedBSMs 	0
scalar MyScenario.node[141].appl 	generatedWSAs 	0
scalar MyScenario.node[141].appl 	receivedWSAs 	0
scalar MyScenario.node[141].nic.phy80211p 	busyTime 	0
scalar MyScenario.node[141].nic.mac1609_4 	ReceivedUnicastPackets 	0
scalar MyScenario.node[141].nic.mac1609_4 	ReceivedBroadcasts 	0
scalar MyScenario.node[141].nic.mac1609_4 	SentPackets 	0
scalar MyScenario.node[141].nic.mac1609_4 	SNIRLostPackets 	0
scalar MyScenario.node[141].nic.mac1609_4 	RXTXLostPackets 	0
scalar MyScenario.node[141].nic.mac1609_4 	TotalLostPackets 	0
scalar MyScenario.node[141].nic.mac1609_4 	DroppedPacketsInMac 	0
scalar MyScenario.node[141].nic.mac1609_4 	TooLittleTime 	0
scalar MyScenario.node[141].nic.mac1609_4 	TimesIntoBackoff 	0
scalar MyScenario.node[141].nic.mac1609_4 	SlotsBackoff 	0
scalar MyScenario.node[141].nic.mac1609_4 	NumInternalContention 	0
scalar MyScenario.node[141].nic.mac1609_4 	totalBusyTime 	0
scalar MyScenario.node[141].veinsmobility 	startTime 	1
scalar MyScenario.node[141].veinsmobility 	totalTime 	32
scalar MyScenario.node[141].veinsmobility 	stopTime 	34
scalar MyScenario.node[141].veinsmobility 	minSpeed 	1.4463647838216
scalar MyScenario.node[141].veinsmobility 	maxSpeed 	13.842331207357
scalar MyScenario.node[141].veinsmobility 	totalDistance 	381.70204343863
scalar MyScenario.node[141].veinsmobility 	totalCO2Emission 	87.812077486135
scalar MyScenario.node[48].appl 	generatedWSMs 	1
scalar MyScenario.node[48].appl 	receivedWSMs 	12
scalar MyScenario.node[48].appl 	generatedBSMs 	0
scalar MyScenario.node[48].appl 	receivedBSMs 	0
scalar MyScenario.node[48].appl 	generatedWSAs 	0
scalar MyScenario.node[48].appl 	receivedWSAs 	0
scalar MyScenario.node[48].nic.phy80211p 	busyTime 	0.00036847058823529
scalar MyScenario.node[48].nic.mac1609_4 	ReceivedUnicastPackets 	0
scalar MyScenario.node[48].nic.mac1609_4 	ReceivedBroadcasts 	12
scalar MyScenario.node[48].nic.mac1609_4 	SentPackets 	1
scalar MyScenario.node[48].nic.mac1609_4 	SNIRLostPackets 	42
scalar MyScenario.node[48].nic.mac1609_4 	RXTXLostPackets 	4
scalar MyScenario.node[48].nic.mac1609_4 	TotalLostPackets 	46
scalar MyScenario.node[48].nic.mac1609_4 	DroppedPacketsInMac 	0
scalar MyScenario.node[48].nic.mac1609_4 	TooLittleTime 	0
scalar MyScenario.node[48].nic.mac1609_4 	TimesIntoBackoff 	1
scalar MyScenario.node[48].nic.mac1609_4 	SlotsBackoff 	2
scalar MyScenario.node[48].nic.mac1609_4 	NumInternalContention 	0
scalar MyScenario.node[48].nic.mac1609_4 	totalBusyTime 	0.004409
scalar MyScenario.node[48].veinsmobility 	startTime 	1
scalar MyScenario.node[48].veinsmobility 	totalTime 	33
scalar MyScenario.node[48].veinsmobility 	stopTime 	35
scalar MyScenario.node[48].veinsmobility 	minSpeed 	2.0867038118653
scalar MyScenario.node[48].veinsmobility 	maxSpeed 	13.895794095681
scalar MyScenario.node[48].veinsmobility 	totalDistance 	372.09889757715
scalar MyScenario.node[48].veinsmobility 	totalCO2Emission 	113.37278633098
scalar MyScenario.node[184].appl 	generatedWSMs 	0
scalar MyScenario.node[184].appl 	receivedWSMs 	0
scalar MyScenario.node[184].appl 	generatedBSMs 	0
scalar MyScenario.node[184].appl 	receivedBSMs 	0
scalar MyScenario.node[184].appl 	generatedWSAs 	0
scalar MyScenario.node[184].appl 	receivedWSAs 	0
scalar MyScenario.node[184].nic.phy80211p 	busyTime 	0
scalar MyScenario.node[184].nic.mac1609_4 	ReceivedUnicastPackets 	0
scalar MyScenario.node[184].nic.mac1609_4 	ReceivedBroadcasts 	0
scalar MyScenario.node[184].nic.mac1609_4 	SentPackets 	0
scalar MyScenario.node[184].nic.mac1609_4 	SNIRLostPackets 	0
scalar MyScenario.node[184].nic.mac1609_4 	RXTXLostPackets 	0
scalar MyScenario.node[184].nic.mac1609_4 	TotalLostPackets 	0
scalar MyScenario.node[184].nic.mac1609_4 	DroppedPacketsInMac 	0
scalar MyScenario.node[184].nic.mac1609_4 	TooLittleTime 	0
scalar MyScenario.node[184].nic.mac1609_4 	TimesIntoBackoff 	0
scalar MyScenario.node[184].nic.mac1609_4 	SlotsBackoff 	0
scalar MyScenario.node[184].nic.mac1609_4 	NumInternalContention 	0
scalar MyScenario.node[184].nic.mac1609_4 	totalBusyTime 	0
scalar MyScenario.node[184].veinsmobility 	startTime 	1
scalar MyScenario.node[184].veinsmobility 	totalTime 	34
scalar MyScenario.node[184].veinsmobility 	stopTime 	36
scalar MyScenario.node[184].veinsmobility 	minSpeed 	1.6233350923052
scalar MyScenario.node[184].veinsmobility 	maxSpeed 	13.872084165248
scalar MyScenario.node[184].veinsmobility 	totalDistance 	375.54318869519
scalar MyScenario.node[184].veinsmobility 	totalCO2Emission 	117.03126582761
scalar MyScenario.node[34].appl 	generatedWSMs 	0
scalar MyScenario.node[34].appl 	receivedWSMs 	0
scalar MyScenario.node[34].appl 	generatedBSMs 	0
scalar MyScenario.node[34].appl 	receivedBSMs 	0
scalar MyScenario.node[34].appl 	generatedWSAs 	0
scalar MyScenario.node[34].appl 	receivedWSAs 	0
scalar MyScenario.node[34].nic.phy80211p 	busyTime 	5.3028571428571e-05
scalar MyScenario.node[34].nic.mac1609_4 	ReceivedUnicastPackets 	0
scalar MyScenario.node[34].nic.mac1609_4 	ReceivedBroadcasts 	0
scalar MyScenario.node[34].nic.mac1609_4 	SentPackets 	0
scalar MyScenario.node[34].nic.mac1609_4 	SNIRLostPackets 	8
scalar MyScenario.node[34].nic.mac1609_4 	RXTXLostPackets 	0
scalar MyScenario.node[34].nic.mac1609_4 	TotalLostPackets 	8
scalar MyScenario.node[34].nic.mac1609_4 	DroppedPacketsInMac 	0
scalar MyScenario.node[34].nic.mac1609_4 	TooLittleTime 	0
scalar MyScenario.node[34].nic.mac1609_4 	TimesIntoBackoff 	0
scalar MyScenario.node[34].nic.mac1609_4 	SlotsBackoff 	0
scalar MyScenario.node[34].nic.mac1609_4 	NumInternalContention 	0
scalar MyScenario.node[34].nic.mac1609_4 	totalBusyTime 	0.000464
scalar MyScenario.node[34].veinsmobility 	startTime 	1
scalar MyScenario.node[34].veinsmobility 	totalTime 	34
scalar MyScenario.node[34].veinsmobility 	stopTime 	36
scalar MyScenario.node[34].veinsmobility 	minSpeed 	2.2109465551563
scalar MyScenario.node[34].veinsmobility 	maxSpeed 	13.800332642323
scalar MyScenario.node[34].veinsmobility 	totalDistance 	363.86159012746
scalar MyScenario.node[34].veinsmobility 	totalCO2Emission 	125.9547312824
scalar MyScenario.node[6].appl 	generatedWSMs 	0
scalar MyScenario.node[6].appl 	receivedWSMs 	0
scalar MyScenario.node[6].appl 	generatedBSMs 	0
scalar MyScenario.node[6].appl 	receivedBSMs 	0
scalar MyScenario.node[6].appl 	generatedWSAs 	0
scalar MyScenario.node[6].appl 	receivedWSAs 	0
scalar MyScenario.node[6].nic.phy80211p 	busyTime 	0
scalar MyScenario.node[6].nic.mac1609_4 	ReceivedUnicastPackets 	0
scalar MyScenario.node[6].nic.mac1609_4 	ReceivedBroadcasts 	0
scalar MyScenario.node[6].nic.mac1609_4 	SentPackets 	0
scalar MyScenario.node[6].nic.mac1609_4 	SNIRLostPackets 	0
scalar MyScenario.node[6].nic.mac1609_4 	RXTXLostPackets 	0
scalar MyScenario.node[6].nic.mac1609_4 	TotalLostPackets 	0
scalar MyScenario.node[6].nic.mac1609_4 	DroppedPacketsInMac 	0
scalar MyScenario.node[6].nic.mac1609_4 	TooLittleTime 	0
scalar MyScenario.node[6].nic.mac1609_4 	TimesIntoBackoff 	0
scalar MyScenario.node[6].nic.mac1609_4 	SlotsBackoff 	0
scalar MyScenario.node[6].nic.mac1609_4 	NumInternalContention 	0
scalar MyScenario.node[6].nic.mac1609_4 	totalBusyTime 	0
scalar MyScenario.node[6].veinsmobility 	startTime 	1
scalar MyScenario.node[6].veinsmobility 	totalTime 	34
scalar MyScenario.node[6].veinsmobility 	stopTime 	36
scalar MyScenario.node[6].veinsmobility 	minSpeed 	1.5086526999017
scalar MyScenario.node[6].veinsmobility 	maxSpeed 	13.845806043013
scalar MyScenario.node[6].veinsmobility 	totalDistance 	378.37525634771
scalar MyScenario.node[6].veinsmobility 	totalCO2Emission 	119.72834265652
scalar MyScenario.node[58].appl 	generatedWSMs 	1
scalar MyScenario.node[58].appl 	receivedWSMs 	1
scalar MyScenario.node[58].appl 	generatedBSMs 	0
scalar MyScenario.node[58].appl 	receivedBSMs 	0
scalar MyScenario.node[58].appl 	generatedWSAs 	0
scalar MyScenario.node[58].appl 	receivedWSAs 	0
scalar MyScenario.node[58].nic.phy80211p 	busyTime 	1.3257142857143e-05
scalar MyScenario.node[58].nic.mac1609_4 	ReceivedUnicastPackets 	0
scalar MyScenario.node[58].nic.mac1609_4 	ReceivedBroadcasts 	1
scalar MyScenario.node[58].nic.mac1609_4 	SentPackets 	1
scalar MyScenario.node[58].nic.mac1609_4 	SNIRLostPackets 	1
scalar MyScenario.node[58].nic.mac1609_4 	RXTXLostPackets 	11
scalar MyScenario.node[58].nic.mac1609_4 	TotalLostPackets 	12
scalar MyScenario.node[58].nic.mac1609_4 	DroppedPacketsInMac 	0
scalar MyScenario.node[58].nic.mac1609_4 	TooLittleTime 	0
scalar MyScenario.node[58].nic.mac1609_4 	TimesIntoBackoff 	1
scalar MyScenario.node[58].nic.mac1609_4 	SlotsBackoff 	2
scalar MyScenario.node[58].nic.mac1609_4 	NumInternalContention 	0
scalar MyScenario.node[58].nic.mac1609_4 	totalBusyTime 	0.000697094228
scalar MyScenario.node[58].veinsmobility 	startTime 	1
scalar MyScenario.node[58].veinsmobility 	totalTime 	34
scalar MyScenario.node[58].veinsmobility 	stopTime 	36
scalar MyScenario.node[58].veinsmobility 	minSpeed 	2.5533435415709
scalar MyScenario.node[58].veinsmobility 	maxSpeed 	13.854746306129
scalar MyScenario.node[58].veinsmobility 	totalDistance 	379.27061025032
scalar MyScenario.node[58].veinsmobility 	totalCO2Emission 	109.4611302212
scalar MyScenario.node[260].appl 	generatedWSMs 	0
scalar MyScenario.node[260].appl 	receivedWSMs 	0
scalar MyScenario.node[260].appl 	generatedBSMs 	0
scalar MyScenario.node[260].appl 	receivedBSMs 	0
scalar MyScenario.node[260].appl 	generatedWSAs 	0
scalar MyScenario.node[260].appl 	receivedWSAs 	0
scalar MyScenario.node[260].nic.phy80211p 	busyTime 	0
scalar MyScenario.node[260].nic.mac1609_4 	ReceivedUnicastPackets 	0
scalar MyScenario.node[260].nic.mac1609_4 	ReceivedBroadcasts 	0
scalar MyScenario.node[260].nic.mac1609_4 	SentPackets 	0
scalar MyScenario.node[260].nic.mac1609_4 	SNIRLostPackets 	0
scalar MyScenario.node[260].nic.mac1609_4 	RXTXLostPackets 	0
scalar MyScenario.node[260].nic.mac1609_4 	TotalLostPackets 	0
scalar MyScenario.node[260].nic.mac1609_4 	DroppedPacketsInMac 	0
scalar MyScenario.node[260].nic.mac1609_4 	TooLittleTime 	0
scalar MyScenario.node[260].nic.mac1609_4 	TimesIntoBackoff 	0
scalar MyScenario.node[260].nic.mac1609_4 	SlotsBackoff 	0
scalar MyScenario.node[260].nic.mac1609_4 	NumInternalContention 	0
scalar MyScenario.node[260].nic.mac1609_4 	totalBusyTime 	0
scalar MyScenario.node[260].veinsmobility 	startTime 	4
scalar MyScenario.node[260].veinsmobility 	totalTime 	33
scalar MyScenario.node[260].veinsmobility 	stopTime 	38
scalar MyScenario.node[260].veinsmobility 	minSpeed 	2.4267716009669
scalar MyScenario.node[260].veinsmobility 	maxSpeed 	13.885768286465
scalar MyScenario.node[260].veinsmobility 	totalDistance 	376.43131187411
scalar MyScenario.node[260].veinsmobility 	totalCO2Emission 	105.88978820263
scalar MyScenario.node[249].appl 	generatedWSMs 	0
scalar MyScenario.node[249].appl 	receivedWSMs 	0
scalar MyScenario.node[249].appl 	generatedBSMs 	0
scalar MyScenario.node[249].appl 	receivedBSMs 	0
scalar MyScenario.node[249].appl 	generatedWSAs 	0
scalar MyScenario.node[249].appl 	receivedWSAs 	0
scalar MyScenario.node[249].nic.phy80211p 	busyTime 	0
scalar MyScenario.node[249].nic.mac1609_4 	ReceivedUnicastPackets 	0
scalar MyScenario.node[249].nic.mac1609_4 	ReceivedBroadcasts 	0
scalar MyScenario.node[249].nic.mac1609_4 	SentPackets 	0
scalar MyScenario.node[249].nic.mac1609_4 	SNIRLostPackets 	0
scalar MyScenario.node[249].nic.mac1609_4 	RXTXLostPackets 	0
scalar MyScenario.node[249].nic.mac1609_4 	TotalLostPackets 	0
scalar MyScenario.node[249].nic.mac1609_4 	DroppedPacketsInMac 	0
scalar MyScenario.node[249].nic.mac1609_4 	TooLittleTime 	0
scalar MyScenario.node[249].nic.mac1609_4 	TimesIntoBackoff 	0
scalar MyScenario.node[249].nic.mac1609_4 	SlotsBackoff 	0
scalar MyScenario.node[249].nic.mac1609_4 	NumInternalContention 	0
scalar MyScenario.node[249].nic.mac1609_4 	totalBusyTime 	0
scalar MyScenario.node[249].veinsmobility 	startTime 	4
scalar MyScenario.node[249].veinsmobility 	totalTime 	33
scalar MyScenario.node[249].veinsmobility 	stopTime 	38
scalar MyScenario.node[249].veinsmobility 	minSpeed 	1.6192213007249
scalar MyScenario.node[249].veinsmobility 	maxSpeed 	13.786385225668
scalar MyScenario.node[249].veinsmobility 	totalDistance 	363.07150913129
scalar MyScenario.node[249].veinsmobility 	totalCO2Emission 	107.895606881
scalar MyScenario.node[198].appl 	generatedWSMs 	0
scalar MyScenario.node[198].appl 	receivedWSMs 	0
scalar MyScenario.node[198].appl 	generatedBSMs 	0
scalar MyScenario.node[198].appl 	receivedBSMs 	0
scalar MyScenario.node[198].appl 	generatedWSAs 	0
scalar MyScenario.node[198].appl 	receivedWSAs 	0
scalar MyScenario.node[198].nic.phy80211p 	busyTime 	0
scalar MyScenario.node[198].nic.mac1609_4 	ReceivedUnicastPackets 	0
scalar MyScenario.node[198].nic.mac1609_4 	ReceivedBroadcasts 	0
scalar MyScenario.node[198].nic.mac1609_4 	SentPackets 	0
scalar MyScenario.node[198].nic.mac1609_4 	SNIRLostPackets 	0
scalar MyScenario.node[198].nic.mac1609_4 	RXTXLostPackets 	0
scalar MyScenario.node[198].nic.mac1609_4 	TotalLostPackets 	0
scalar MyScenario.node[198].nic.mac1609_4 	DroppedPacketsInMac 	0
scalar MyScenario.node[198].nic.mac1609_4 	TooLittleTime 	0
scalar MyScenario.node[198].nic.mac1609_4 	TimesIntoBackoff 	0
scalar MyScenario.node[198].nic.mac1609_4 	SlotsBackoff 	0
scalar MyScenario.node[198].nic.mac1609_4 	NumInternalContention 	0
scalar MyScenario.node[198].nic.mac1609_4 	totalBusyTime 	0
scalar MyScenario.node[198].veinsmobility 	startTime 	4
scalar MyScenario.node[198].veinsmobility 	totalTime 	34
scalar MyScenario.node[198].veinsmobility 	stopTime 	39
scalar MyScenario.node[198].veinsmobility 	minSpeed 	2.1815742885927
scalar MyScenario.node[198].veinsmobility 	maxSpeed 	13.865966874082
scalar MyScenario.node[198].veinsmobility 	totalDistance 	377.79465521946
scalar MyScenario.node[198].veinsmobility 	totalCO2Emission 	104.3043432604
scalar MyScenario.node[222].appl 	generatedWSMs 	1
scalar MyScenario.node[222].appl 	receivedWSMs 	7
scalar MyScenario.node[222].appl 	generatedBSMs 	0
scalar MyScenario.node[222].appl 	receivedBSMs 	0
scalar MyScenario.node[222].appl 	generatedWSAs 	0
scalar MyScenario.node[222].appl 	receivedWSAs 	0
scalar MyScenario.node[222].nic.phy80211p 	busyTime 	0.00027177142857143
scalar MyScenario.node[222].nic.mac1609_4 	ReceivedUnicastPackets 	0
scalar MyScenario.node[222].nic.mac1609_4 	ReceivedBroadcasts 	7
scalar MyScenario.node[222].nic.mac1609_4 	SentPackets 	1
scalar MyScenario.node[222].nic.mac1609_4 	SNIRLostPackets 	34
scalar MyScenario.node[222].nic.mac1609_4 	RXTXLostPackets 	10
scalar MyScenario.node[222].nic.mac1609_4 	TotalLostPackets 	44
scalar MyScenario.node[222].nic.mac1609_4 	DroppedPacketsInMac 	0
scalar MyScenario.node[222].nic.mac1609_4 	TooLittleTime 	0
scalar MyScenario.node[222].nic.mac1609_4 	TimesIntoBackoff 	1
scalar MyScenario.node[222].nic.mac1609_4 	SlotsBackoff 	1
scalar MyScenario.node[222].nic.mac1609_4 	NumInternalContention 	0
scalar MyScenario.node[222].nic.mac1609_4 	totalBusyTime 	0.00278508484
scalar MyScenario.node[222].veinsmobility 	startTime 	4
scalar MyScenario.node[222].veinsmobility 	totalTime 	34
scalar MyScenario.node[222].veinsmobility 	stopTime 	39
scalar MyScenario.node[222].veinsmobility 	minSpeed 	2.5908715553815
scalar MyScenario.node[222].veinsmobility 	maxSpeed 	13.819208805729
scalar MyScenario.node[222].veinsmobility 	totalDistance 	369.74760439548
scalar MyScenario.node[222].veinsmobility 	totalCO2Emission 	120.59284282586
scalar MyScenario.node[121].appl 	generatedWSMs 	1
scalar MyScenario.node[121].appl 	receivedWSMs 	13
scalar MyScenario.node[121].appl 	generatedBSMs 	0
scalar MyScenario.node[121].appl 	receivedBSMs 	0
scalar MyScenario.node[121].appl 	generatedWSAs 	0
scalar MyScenario.node[121].appl 	receivedWSAs 	0
scalar MyScenario.node[121].nic.phy80211p 	busyTime 	0.00029148717948718
scalar MyScenario.node[121].nic.mac1609_4 	ReceivedUnicastPackets 	0
scalar MyScenario.node[121].nic.mac1609_4 	ReceivedBroadcasts 	13
scalar MyScenario.node[121].nic.mac1609_4 	SentPackets 	1
scalar MyScenario.node[121].nic.mac1609_4 	SNIRLostPackets 	36
scalar MyScenario.node[121].nic.mac1609_4 	RXTXLostPackets 	12
scalar MyScenario.node[121].nic.mac1609_4 	TotalLostPackets 	48
scalar MyScenario.node[121].nic.mac1609_4 	DroppedPacketsInMac 	0
scalar MyScenario.node[121].nic.mac1609_4 	TooLittleTime 	0
scalar MyScenario.node[121].nic.mac1609_4 	TimesIntoBackoff 	1
scalar MyScenario.node[121].nic.mac1609_4 	SlotsBackoff 	1
scalar MyScenario.node[121].nic.mac1609_4 	NumInternalContention 	0
scalar MyScenario.node[121].nic.mac1609_4 	totalBusyTime 	0.004409
scalar MyScenario.node[121].veinsmobility 	startTime 	1
scalar MyScenario.node[121].veinsmobility 	totalTime 	38
scalar MyScenario.node[121].veinsmobility 	stopTime 	40
scalar MyScenario.node[121].veinsmobility 	minSpeed 	0.068143144615352
scalar MyScenario.node[121].veinsmobility 	maxSpeed 	13.77742317142
scalar MyScenario.node[121].veinsmobility 	totalDistance 	373.73037900586
scalar MyScenario.node[121].veinsmobility 	totalCO2Emission 	128.9555386365
scalar MyScenario.node[269].appl 	generatedWSMs 	0
scalar MyScenario.node[269].appl 	receivedWSMs 	0
scalar MyScenario.node[269].appl 	generatedBSMs 	0
scalar MyScenario.node[269].appl 	receivedBSMs 	0
scalar MyScenario.node[269].appl 	generatedWSAs 	0
scalar MyScenario.node[269].appl 	receivedWSAs 	0
scalar MyScenario.node[269].nic.phy80211p 	busyTime 	6.4444444444444e-05
scalar MyScenario.node[269].nic.mac1609_4 	ReceivedUnicastPackets 	0
scalar MyScenario.node[269].nic.mac1609_4 	ReceivedBroadcasts 	0
scalar MyScenario.node[269].nic.mac1609_4 	SentPackets 	0
scalar MyScenario.node[269].nic.mac1609_4 	SNIRLostPackets 	10
scalar MyScenario.node[269].nic.mac1609_4 	RXTXLostPackets 	0
scalar MyScenario.node[269].nic.mac1609_4 	TotalLostPackets 	10
scalar MyScenario.node[269].nic.mac1609_4 	DroppedPacketsInMac 	0
scalar MyScenario.node[269].nic.mac1609_4 	TooLittleTime 	0
scalar MyScenario.node[269].nic.mac1609_4 	TimesIntoBackoff 	0
scalar MyScenario.node[269].nic.mac1609_4 	SlotsBackoff 	0
scalar MyScenario.node[269].nic.mac1609_4 	NumInternalContention 	0
scalar MyScenario.node[269].nic.mac1609_4 	totalBusyTime 	0.000232
scalar MyScenario.node[269].veinsmobility 	startTime 	4
scalar MyScenario.node[269].veinsmobility 	totalTime 	35
scalar MyScenario.node[269].veinsmobility 	stopTime 	40
scalar MyScenario.node[269].veinsmobility 	minSpeed 	2.3264025512151
scalar MyScenario.node[269].veinsmobility 	maxSpeed 	13.868531270884
scalar MyScenario.node[269].veinsmobility 	totalDistance 	371.4524824704
scalar MyScenario.node[269].veinsmobility 	totalCO2Emission 	119.58709124113
scalar MyScenario.node[219].appl 	generatedWSMs 	1
scalar MyScenario.node[219].appl 	receivedWSMs 	10
scalar MyScenario.node[219].appl 	generatedBSMs 	0
scalar MyScenario.node[219].appl 	receivedBSMs 	0
scalar MyScenario.node[219].appl 	generatedWSAs 	0
scalar MyScenario.node[219].appl 	receivedWSAs 	0
scalar MyScenario.node[219].nic.phy80211p 	busyTime 	0.00020225641025641
scalar MyScenario.node[219].nic.mac1609_4 	ReceivedUnicastPackets 	0
scalar MyScenario.node[219].nic.mac1609_4 	ReceivedBroadcasts 	10
scalar MyScenario.node[219].nic.mac1609_4 	SentPackets 	1
scalar MyScenario.node[219].nic.mac1609_4 	SNIRLostPackets 	24
scalar MyScenario.node[219].nic.mac1609_4 	RXTXLostPackets 	10
scalar MyScenario.node[219].nic.mac1609_4 	TotalLostPackets 	34
scalar MyScenario.node[219].nic.mac1609_4 	DroppedPacketsInMac 	0
scalar MyScenario.node[219].nic.mac1609_4 	TooLittleTime 	0
scalar MyScenario.node[219].nic.mac1609_4 	TimesIntoBackoff 	1
scalar MyScenario.node[219].nic.mac1609_4 	SlotsBackoff 	2
scalar MyScenario.node[219].nic.mac1609_4 	NumInternalContention 	0
scalar MyScenario.node[219].nic.mac1609_4 	totalBusyTime 	0.003713084864
scalar MyScenario.node[219].veinsmobility 	startTime 	4
scalar MyScenario.node[219].veinsmobility 	totalTime 	38
scalar MyScenario.node[219].veinsmobility 	stopTime 	43
scalar MyScenario.node[219].veinsmobility 	minSpeed 	1.3001409783619
scalar MyScenario.node[219].veinsmobility 	maxSpeed 	13.82350451909
scalar MyScenario.node[219].veinsmobility 	totalDistance 	374.76584682357
scalar MyScenario.node[219].veinsmobility 	totalCO2Emission 	111.60815363054
scalar MyScenario.node[250].appl 	generatedWSMs 	0
scalar MyScenario.node[250].appl 	receivedWSMs 	0
scalar MyScenario.node[250].appl 	generatedBSMs 	0
scalar MyScenario.node[250].appl 	receivedBSMs 	0
scalar MyScenario.node[250].appl 	generatedWSAs 	0
scalar MyScenario.node[250].appl 	receivedWSAs 	0
scalar MyScenario.node[250].nic.phy80211p 	busyTime 	0
scalar MyScenario.node[250].nic.mac1609_4 	ReceivedUnicastPackets 	0
scalar MyScenario.node[250].nic.mac1609_4 	ReceivedBroadcasts 	0
scalar MyScenario.node[250].nic.mac1609_4 	SentPackets 	0
scalar MyScenario.node[250].nic.mac1609_4 	SNIRLostPackets 	0
scalar MyScenario.node[250].nic.mac1609_4 	RXTXLostPackets 	0
scalar MyScenario.node[250].nic.mac1609_4 	TotalLostPackets 	0
scalar MyScenario.node[250].nic.mac1609_4 	DroppedPacketsInMac 	0
scalar MyScenario.node[250].nic.mac1609_4 	TooLittleTime 	0
scalar MyScenario.node[250].nic.mac1609_4 	TimesIntoBackoff 	0
scalar MyScenario.node[250].nic.mac1609_4 	SlotsBackoff 	0
scalar MyScenario.node[250].nic.mac1609_4 	NumInternalContention 	0
scalar MyScenario.node[250].nic.mac1609_4 	totalBusyTime 	0
scalar MyScenario.node[250].veinsmobility 	startTime 	4
scalar MyScenario.node[250].veinsmobility 	totalTime 	38
scalar MyScenario.node[250].veinsmobility 	stopTime 	43
scalar MyScenario.node[250].veinsmobility 	minSpeed 	1.0899324878099
scalar MyScenario.node[250].veinsmobility 	maxSpeed 	13.804157756944
scalar MyScenario.node[250].veinsmobility 	totalDistance 	377.05458461088
scalar MyScenario.node[250].veinsmobility 	totalCO2Emission 	127.15750742822
scalar MyScenario.node[179].appl 	generatedWSMs 	1
scalar MyScenario.node[179].appl 	receivedWSMs 	1
scalar MyScenario.node[179].appl 	generatedBSMs 	0
scalar MyScenario.node[179].appl 	receivedBSMs 	0
scalar MyScenario.node[179].appl 	generatedWSAs 	0
scalar MyScenario.node[179].appl 	receivedWSAs 	0
scalar MyScenario.node[179].nic.phy80211p 	busyTime 	0.00010790697674419
scalar MyScenario.node[179].nic.mac1609_4 	ReceivedUnicastPackets 	0
scalar MyScenario.node[179].nic.mac1609_4 	ReceivedBroadcasts 	1
scalar MyScenario.node[179].nic.mac1609_4 	SentPackets 	1
scalar MyScenario.node[179].nic.mac1609_4 	SNIRLostPackets 	19
scalar MyScenario.node[179].nic.mac1609_4 	RXTXLostPackets 	9
scalar MyScenario.node[179].nic.mac1609_4 	TotalLostPackets 	28
scalar MyScenario.node[179].nic.mac1609_4 	DroppedPacketsInMac 	0
scalar MyScenario.node[179].nic.mac1609_4 	TooLittleTime 	0
scalar MyScenario.node[179].nic.mac1609_4 	TimesIntoBackoff 	1
scalar MyScenario.node[179].nic.mac1609_4 	SlotsBackoff 	2
scalar MyScenario.node[179].nic.mac1609_4 	NumInternalContention 	0
scalar MyScenario.node[179].nic.mac1609_4 	totalBusyTime 	0.001857174591
scalar MyScenario.node[179].veinsmobility 	startTime 	1
scalar MyScenario.node[179].veinsmobility 	totalTime 	42
scalar MyScenario.node[179].veinsmobility 	stopTime 	44
scalar MyScenario.node[179].veinsmobility 	minSpeed 	1.4416895305272
scalar MyScenario.node[179].veinsmobility 	maxSpeed 	13.826869163848
scalar MyScenario.node[179].veinsmobility 	totalDistance 	476.91308123321
scalar MyScenario.node[179].veinsmobility 	totalCO2Emission 	127.20192406089
scalar MyScenario.node[14].appl 	generatedWSMs 	0
scalar MyScenario.node[14].appl 	receivedWSMs 	0
scalar MyScenario.node[14].appl 	generatedBSMs 	0
scalar MyScenario.node[14].appl 	receivedBSMs 	0
scalar MyScenario.node[14].appl 	generatedWSAs 	0
scalar MyScenario.node[14].appl 	receivedWSAs 	0
scalar MyScenario.node[14].nic.phy80211p 	busyTime 	6.3272727272727e-05
scalar MyScenario.node[14].nic.mac1609_4 	ReceivedUnicastPackets 	0
scalar MyScenario.node[14].nic.mac1609_4 	ReceivedBroadcasts 	0
scalar MyScenario.node[14].nic.mac1609_4 	SentPackets 	0
scalar MyScenario.node[14].nic.mac1609_4 	SNIRLostPackets 	12
scalar MyScenario.node[14].nic.mac1609_4 	RXTXLostPackets 	0
scalar MyScenario.node[14].nic.mac1609_4 	TotalLostPackets 	12
scalar MyScenario.node[14].nic.mac1609_4 	DroppedPacketsInMac 	0
scalar MyScenario.node[14].nic.mac1609_4 	TooLittleTime 	0
scalar MyScenario.node[14].nic.mac1609_4 	TimesIntoBackoff 	0
scalar MyScenario.node[14].nic.mac1609_4 	SlotsBackoff 	0
scalar MyScenario.node[14].nic.mac1609_4 	NumInternalContention 	0
scalar MyScenario.node[14].nic.mac1609_4 	totalBusyTime 	0.000696
scalar MyScenario.node[14].veinsmobility 	startTime 	1
scalar MyScenario.node[14].veinsmobility 	totalTime 	43
scalar MyScenario.node[14].veinsmobility 	stopTime 	45
scalar MyScenario.node[14].veinsmobility 	minSpeed 	1.4850868087495
scalar MyScenario.node[14].veinsmobility 	maxSpeed 	13.849857020052
scalar MyScenario.node[14].veinsmobility 	totalDistance 	476.66431209714
scalar MyScenario.node[14].veinsmobility 	totalCO2Emission 	123.9809191856
scalar MyScenario.node[233].appl 	generatedWSMs 	1
scalar MyScenario.node[233].appl 	receivedWSMs 	8
scalar MyScenario.node[233].appl 	generatedBSMs 	0
scalar MyScenario.node[233].appl 	receivedBSMs 	0
scalar MyScenario.node[233].appl 	generatedWSAs 	0
scalar MyScenario.node[233].appl 	receivedWSAs 	0
scalar MyScenario.node[233].nic.phy80211p 	busyTime 	0.00020370731707317
scalar MyScenario.node[233].nic.mac1609_4 	ReceivedUnicastPackets 	0
scalar MyScenario.node[233].nic.mac1609_4 	ReceivedBroadcasts 	8
scalar MyScenario.node[233].nic.mac1609_4 	SentPackets 	1
scalar MyScenario.node[233].nic.mac1609_4 	SNIRLostPackets 	28
scalar MyScenario.node[233].nic.mac1609_4 	RXTXLostPackets 	0
scalar MyScenario.node[233].nic.mac1609_4 	TotalLostPackets 	28
scalar MyScenario.node[233].nic.mac1609_4 	DroppedPacketsInMac 	0
scalar MyScenario.node[233].nic.mac1609_4 	TooLittleTime 	0
scalar MyScenario.node[233].nic.mac1609_4 	TimesIntoBackoff 	1
scalar MyScenario.node[233].nic.mac1609_4 	SlotsBackoff 	1
scalar MyScenario.node[233].nic.mac1609_4 	NumInternalContention 	0
scalar MyScenario.node[233].nic.mac1609_4 	totalBusyTime 	0.002785
scalar MyScenario.node[233].veinsmobility 	startTime 	4
scalar MyScenario.node[233].veinsmobility 	totalTime 	40
scalar MyScenario.node[233].veinsmobility 	stopTime 	45
scalar MyScenario.node[233].veinsmobility 	minSpeed 	2.4244702241616
scalar MyScenario.node[233].veinsmobility 	maxSpeed 	13.828241327475
scalar MyScenario.node[233].veinsmobility 	totalDistance 	472.11072187431
scalar MyScenario.node[233].veinsmobility 	totalCO2Emission 	122.36872090855
scalar MyScenario.node[262].appl 	generatedWSMs 	1
scalar MyScenario.node[262].appl 	receivedWSMs 	14
scalar MyScenario.node[262].appl 	generatedBSMs 	0
scalar MyScenario.node[262].appl 	receivedBSMs 	0
scalar MyScenario.node[262].appl 	generatedWSAs 	0
scalar MyScenario.node[262].appl 	receivedWSAs 	0
scalar MyScenario.node[262].nic.phy80211p 	busyTime 	0.00024304761904762
scalar MyScenario.node[262].nic.mac1609_4 	ReceivedUnicastPackets 	0
scalar MyScenario.node[262].nic.mac1609_4 	ReceivedBroadcasts 	14
scalar MyScenario.node[262].nic.mac1609_4 	SentPackets 	1
scalar MyScenario.node[262].nic.mac1609_4 	SNIRLostPackets 	30
scalar MyScenario.node[262].nic.mac1609_4 	RXTXLostPackets 	13
scalar MyScenario.node[262].nic.mac1609_4 	TotalLostPackets 	43
scalar MyScenario.node[262].nic.mac1609_4 	DroppedPacketsInMac 	0
scalar MyScenario.node[262].nic.mac1609_4 	TooLittleTime 	0
scalar MyScenario.node[262].nic.mac1609_4 	TimesIntoBackoff 	1
scalar MyScenario.node[262].nic.mac1609_4 	SlotsBackoff 	2
scalar MyScenario.node[262].nic.mac1609_4 	NumInternalContention 	0
scalar MyScenario.node[262].nic.mac1609_4 	totalBusyTime 	0.005105074522
scalar MyScenario.node[262].veinsmobility 	startTime 	4
scalar MyScenario.node[262].veinsmobility 	totalTime 	41
scalar MyScenario.node[262].veinsmobility 	stopTime 	46
scalar MyScenario.node[262].veinsmobility 	minSpeed 	0.042883274857614
scalar MyScenario.node[262].veinsmobility 	maxSpeed 	13.848564627091
scalar MyScenario.node[262].veinsmobility 	totalDistance 	375.6547987651
scalar MyScenario.node[262].veinsmobility 	totalCO2Emission 	123.15924124261
scalar MyScenario.node[257].appl 	generatedWSMs 	0
scalar MyScenario.node[257].appl 	receivedWSMs 	0
scalar MyScenario.node[257].appl 	generatedBSMs 	0
scalar MyScenario.node[257].appl 	receivedBSMs 	0
scalar MyScenario.node[257].appl 	generatedWSAs 	0
scalar MyScenario.node[257].appl 	receivedWSAs 	0
scalar MyScenario.node[257].nic.phy80211p 	busyTime 	4.8558139534884e-05
scalar MyScenario.node[257].nic.mac1609_4 	ReceivedUnicastPackets 	0
scalar MyScenario.node[257].nic.mac1609_4 	ReceivedBroadcasts 	0
scalar MyScenario.node[257].nic.mac1609_4 	SentPackets 	0
scalar MyScenario.node[257].nic.mac1609_4 	SNIRLostPackets 	9
scalar MyScenario.node[257].nic.mac1609_4 	RXTXLostPackets 	0
scalar MyScenario.node[257].nic.mac1609_4 	TotalLostPackets 	9
scalar MyScenario.node[257].nic.mac1609_4 	DroppedPacketsInMac 	0
scalar MyScenario.node[257].nic.mac1609_4 	TooLittleTime 	0
scalar MyScenario.node[257].nic.mac1609_4 	TimesIntoBackoff 	0
scalar MyScenario.node[257].nic.mac1609_4 	SlotsBackoff 	0
scalar MyScenario.node[257].nic.mac1609_4 	NumInternalContention 	0
scalar MyScenario.node[257].nic.mac1609_4 	totalBusyTime 	0.000232
scalar MyScenario.node[257].veinsmobility 	startTime 	4
scalar MyScenario.node[257].veinsmobility 	totalTime 	42
scalar MyScenario.node[257].veinsmobility 	stopTime 	47
scalar MyScenario.node[257].veinsmobility 	minSpeed 	1.7121886785841
scalar MyScenario.node[257].veinsmobility 	maxSpeed 	13.84675408015
scalar MyScenario.node[257].veinsmobility 	totalDistance 	454.13078630557
scalar MyScenario.node[257].veinsmobility 	totalCO2Emission 	145.20613527651
scalar MyScenario.node[276].appl 	generatedWSMs 	1
scalar MyScenario.node[276].appl 	receivedWSMs 	4
scalar MyScenario.node[276].appl 	generatedBSMs 	0
scalar MyScenario.node[276].appl 	receivedBSMs 	0
scalar MyScenario.node[276].appl 	generatedWSAs 	0
scalar MyScenario.node[276].appl 	receivedWSAs 	0
scalar MyScenario.node[276].nic.phy80211p 	busyTime 	0.0001044
scalar MyScenario.node[276].nic.mac1609_4 	ReceivedUnicastPackets 	0
scalar MyScenario.node[276].nic.mac1609_4 	ReceivedBroadcasts 	4
scalar MyScenario.node[276].nic.mac1609_4 	SentPackets 	1
scalar MyScenario.node[276].nic.mac1609_4 	SNIRLostPackets 	14
scalar MyScenario.node[276].nic.mac1609_4 	RXTXLostPackets 	13
scalar MyScenario.node[276].nic.mac1609_4 	TotalLostPackets 	27
scalar MyScenario.node[276].nic.mac1609_4 	DroppedPacketsInMac 	0
scalar MyScenario.node[276].nic.mac1609_4 	TooLittleTime 	0
scalar MyScenario.node[276].nic.mac1609_4 	TimesIntoBackoff 	1
scalar MyScenario.node[276].nic.mac1609_4 	SlotsBackoff 	2
scalar MyScenario.node[276].nic.mac1609_4 	NumInternalContention 	0
scalar MyScenario.node[276].nic.mac1609_4 	totalBusyTime 	0.00185714924
scalar MyScenario.node[276].veinsmobility 	startTime 	7
scalar MyScenario.node[276].veinsmobility 	totalTime 	39
scalar MyScenario.node[276].veinsmobility 	stopTime 	47
scalar MyScenario.node[276].veinsmobility 	minSpeed 	1.4686621407513
scalar MyScenario.node[276].veinsmobility 	maxSpeed 	13.856175790355
scalar MyScenario.node[276].veinsmobility 	totalDistance 	479.07541636145
scalar MyScenario.node[276].veinsmobility 	totalCO2Emission 	110.62124520211
scalar MyScenario.node[112].appl 	generatedWSMs 	0
scalar MyScenario.node[112].appl 	receivedWSMs 	0
scalar MyScenario.node[112].appl 	generatedBSMs 	0
scalar MyScenario.node[112].appl 	receivedBSMs 	0
scalar MyScenario.node[112].appl 	generatedWSAs 	0
scalar MyScenario.node[112].appl 	receivedWSAs 	0
scalar MyScenario.node[112].nic.phy80211p 	busyTime 	0
scalar MyScenario.node[112].nic.mac1609_4 	ReceivedUnicastPackets 	0
scalar MyScenario.node[112].nic.mac1609_4 	ReceivedBroadcasts 	0
scalar MyScenario.node[112].nic.mac1609_4 	SentPackets 	0
scalar MyScenario.node[112].nic.mac1609_4 	SNIRLostPackets 	0
scalar MyScenario.node[112].nic.mac1609_4 	RXTXLostPackets 	0
scalar MyScenario.node[112].nic.mac1609_4 	TotalLostPackets 	0
scalar MyScenario.node[112].nic.mac1609_4 	DroppedPacketsInMac 	0
scalar MyScenario.node[112].nic.mac1609_4 	TooLittleTime 	0
scalar MyScenario.node[112].nic.mac1609_4 	TimesIntoBackoff 	0
scalar MyScenario.node[112].nic.mac1609_4 	SlotsBackoff 	0
scalar MyScenario.node[112].nic.mac1609_4 	NumInternalContention 	0
scalar MyScenario.node[112].nic.mac1609_4 	totalBusyTime 	0
scalar MyScenario.node[112].veinsmobility 	startTime 	1
scalar MyScenario.node[112].veinsmobility 	totalTime 	46
scalar MyScenario.node[112].veinsmobility 	stopTime 	48
scalar MyScenario.node[112].veinsmobility 	minSpeed 	0.026679703464792
scalar MyScenario.node[112].veinsmobility 	maxSpeed 	13.855083485413
scalar MyScenario.node[112].veinsmobility 	totalDistance 	474.36143894495
scalar MyScenario.node[112].veinsmobility 	totalCO2Emission 	133.20344186835
scalar MyScenario.node[49].appl 	generatedWSMs 	1
scalar MyScenario.node[49].appl 	receivedWSMs 	1
scalar MyScenario.node[49].appl 	generatedBSMs 	0
scalar MyScenario.node[49].appl 	receivedBSMs 	0
scalar MyScenario.node[49].appl 	generatedWSAs 	0
scalar MyScenario.node[49].appl 	receivedWSAs 	0
scalar MyScenario.node[49].nic.phy80211p 	busyTime 	8.8851063829787e-05
scalar MyScenario.node[49].nic.mac1609_4 	ReceivedUnicastPackets 	0
scalar MyScenario.node[49].nic.mac1609_4 	ReceivedBroadcasts 	1
scalar MyScenario.node[49].nic.mac1609_4 	SentPackets 	1
scalar MyScenario.node[49].nic.mac1609_4 	SNIRLostPackets 	17
scalar MyScenario.node[49].nic.mac1609_4 	RXTXLostPackets 	12
scalar MyScenario.node[49].nic.mac1609_4 	TotalLostPackets 	29
scalar MyScenario.node[49].nic.mac1609_4 	DroppedPacketsInMac 	0
scalar MyScenario.node[49].nic.mac1609_4 	TooLittleTime 	0
scalar MyScenario.node[49].nic.mac1609_4 	TimesIntoBackoff 	1
scalar MyScenario.node[49].nic.mac1609_4 	SlotsBackoff 	1
scalar MyScenario.node[49].nic.mac1609_4 	NumInternalContention 	0
scalar MyScenario.node[49].nic.mac1609_4 	totalBusyTime 	0.001625
scalar MyScenario.node[49].veinsmobility 	startTime 	1
scalar MyScenario.node[49].veinsmobility 	totalTime 	46
scalar MyScenario.node[49].veinsmobility 	stopTime 	48
scalar MyScenario.node[49].veinsmobility 	minSpeed 	1.4945740739582
scalar MyScenario.node[49].veinsmobility 	maxSpeed 	13.824964213488
scalar MyScenario.node[49].veinsmobility 	totalDistance 	458.12210179318
scalar MyScenario.node[49].veinsmobility 	totalCO2Emission 	164.31227163826
scalar MyScenario.node[19].appl 	generatedWSMs 	1
scalar MyScenario.node[19].appl 	receivedWSMs 	19
scalar MyScenario.node[19].appl 	generatedBSMs 	0
scalar MyScenario.node[19].appl 	receivedBSMs 	0
scalar MyScenario.node[19].appl 	generatedWSAs 	0
scalar MyScenario.node[19].appl 	receivedWSAs 	0
scalar MyScenario.node[19].nic.phy80211p 	busyTime 	0.00027642553191489
scalar MyScenario.node[19].nic.mac1609_4 	ReceivedUnicastPackets 	0
scalar MyScenario.node[19].nic.mac1609_4 	ReceivedBroadcasts 	19
scalar MyScenario.node[19].nic.mac1609_4 	SentPackets 	1
scalar MyScenario.node[19].nic.mac1609_4 	SNIRLostPackets 	37
scalar MyScenario.node[19].nic.mac1609_4 	RXTXLostPackets 	11
scalar MyScenario.node[19].nic.mac1609_4 	TotalLostPackets 	48
scalar MyScenario.node[19].nic.mac1609_4 	DroppedPacketsInMac 	0
scalar MyScenario.node[19].nic.mac1609_4 	TooLittleTime 	0
scalar MyScenario.node[19].nic.mac1609_4 	TimesIntoBackoff 	1
scalar MyScenario.node[19].nic.mac1609_4 	SlotsBackoff 	1
scalar MyScenario.node[19].nic.mac1609_4 	NumInternalContention 	0
scalar MyScenario.node[19].nic.mac1609_4 	totalBusyTime 	0.006497083846
scalar MyScenario.node[19].veinsmobility 	startTime 	1
scalar MyScenario.node[19].veinsmobility 	totalTime 	46
scalar MyScenario.node[19].veinsmobility 	stopTime 	48
scalar MyScenario.node[19].veinsmobility 	minSpeed 	7.1222200861618e-06
scalar MyScenario.node[19].veinsmobility 	maxSpeed 	13.788466671971
scalar MyScenario.node[19].veinsmobility 	totalDistance 	371.4389562468
scalar MyScenario.node[19].veinsmobility 	totalCO2Emission 	137.53468407984
scalar MyScenario.node[87].appl 	generatedWSMs 	1
scalar MyScenario.node[87].appl 	receivedWSMs 	1
scalar MyScenario.node[87].appl 	generatedBSMs 	0
scalar MyScenario.node[87].appl 	receivedBSMs 	0
scalar MyScenario.node[87].appl 	generatedWSAs 	0
scalar MyScenario.node[87].appl 	receivedWSAs 	0
scalar MyScenario.node[87].nic.phy80211p 	busyTime 	7.8978723404255e-05
scalar MyScenario.node[87].nic.mac1609_4 	ReceivedUnicastPackets 	0
scalar MyScenario.node[87].nic.mac1609_4 	ReceivedBroadcasts 	1
scalar MyScenario.node[87].nic.mac1609_4 	SentPackets 	1
scalar MyScenario.node[87].nic.mac1609_4 	SNIRLostPackets 	15
scalar MyScenario.node[87].nic.mac1609_4 	RXTXLostPackets 	3
scalar MyScenario.node[87].nic.mac1609_4 	TotalLostPackets 	18
scalar MyScenario.node[87].nic.mac1609_4 	DroppedPacketsInMac 	0
scalar MyScenario.node[87].nic.mac1609_4 	TooLittleTime 	0
scalar MyScenario.node[87].nic.mac1609_4 	TimesIntoBackoff 	1
scalar MyScenario.node[87].nic.mac1609_4 	SlotsBackoff 	3
scalar MyScenario.node[87].nic.mac1609_4 	NumInternalContention 	0
scalar MyScenario.node[87].nic.mac1609_4 	totalBusyTime 	0.000697
scalar MyScenario.node[87].veinsmobility 	startTime 	1
scalar MyScenario.node[87].veinsmobility 	totalTime 	46
scalar MyScenario.node[87].veinsmobility 	stopTime 	48
scalar MyScenario.node[87].veinsmobility 	minSpeed 	0.029799783571963
scalar MyScenario.node[87].veinsmobility 	maxSpeed 	13.66267343245
scalar MyScenario.node[87].veinsmobility 	totalDistance 	478.70098109892
scalar MyScenario.node[87].veinsmobility 	totalCO2Emission 	131.03798201968
scalar MyScenario.node[207].appl 	generatedWSMs 	0
scalar MyScenario.node[207].appl 	receivedWSMs 	0
scalar MyScenario.node[207].appl 	generatedBSMs 	0
scalar MyScenario.node[207].appl 	receivedBSMs 	0
scalar MyScenario.node[207].appl 	generatedWSAs 	0
scalar MyScenario.node[207].appl 	receivedWSAs 	0
scalar MyScenario.node[207].nic.phy80211p 	busyTime 	1.0311111111111e-05
scalar MyScenario.node[207].nic.mac1609_4 	ReceivedUnicastPackets 	0
scalar MyScenario.node[207].nic.mac1609_4 	ReceivedBroadcasts 	0
scalar MyScenario.node[207].nic.mac1609_4 	SentPackets 	0
scalar MyScenario.node[207].nic.mac1609_4 	SNIRLostPackets 	2
scalar MyScenario.node[207].nic.mac1609_4 	RXTXLostPackets 	0
scalar MyScenario.node[207].nic.mac1609_4 	TotalLostPackets 	2
scalar MyScenario.node[207].nic.mac1609_4 	DroppedPacketsInMac 	0
scalar MyScenario.node[207].nic.mac1609_4 	TooLittleTime 	0
scalar MyScenario.node[207].nic.mac1609_4 	TimesIntoBackoff 	0
scalar MyScenario.node[207].nic.mac1609_4 	SlotsBackoff 	0
scalar MyScenario.node[207].nic.mac1609_4 	NumInternalContention 	0
scalar MyScenario.node[207].nic.mac1609_4 	totalBusyTime 	0.000232
scalar MyScenario.node[207].veinsmobility 	startTime 	4
scalar MyScenario.node[207].veinsmobility 	totalTime 	44
scalar MyScenario.node[207].veinsmobility 	stopTime 	49
scalar MyScenario.node[207].veinsmobility 	minSpeed 	3.379875336483e-05
scalar MyScenario.node[207].veinsmobility 	maxSpeed 	13.89599370244
scalar MyScenario.node[207].veinsmobility 	totalDistance 	369.14060616835
scalar MyScenario.node[207].veinsmobility 	totalCO2Emission 	135.4073287707
scalar MyScenario.node[300].appl 	generatedWSMs 	0
scalar MyScenario.node[300].appl 	receivedWSMs 	0
scalar MyScenario.node[300].appl 	generatedBSMs 	0
scalar MyScenario.node[300].appl 	receivedBSMs 	0
scalar MyScenario.node[300].appl 	generatedWSAs 	0
scalar MyScenario.node[300].appl 	receivedWSAs 	0
scalar MyScenario.node[300].nic.phy80211p 	busyTime 	7.9368421052632e-05
scalar MyScenario.node[300].nic.mac1609_4 	ReceivedUnicastPackets 	0
scalar MyScenario.node[300].nic.mac1609_4 	ReceivedBroadcasts 	0
scalar MyScenario.node[300].nic.mac1609_4 	SentPackets 	0
scalar MyScenario.node[300].nic.mac1609_4 	SNIRLostPackets 	13
scalar MyScenario.node[300].nic.mac1609_4 	RXTXLostPackets 	0
scalar MyScenario.node[300].nic.mac1609_4 	TotalLostPackets 	13
scalar MyScenario.node[300].nic.mac1609_4 	DroppedPacketsInMac 	0
scalar MyScenario.node[300].nic.mac1609_4 	TooLittleTime 	0
scalar MyScenario.node[300].nic.mac1609_4 	TimesIntoBackoff 	0
scalar MyScenario.node[300].nic.mac1609_4 	SlotsBackoff 	0
scalar MyScenario.node[300].nic.mac1609_4 	NumInternalContention 	0
scalar MyScenario.node[300].nic.mac1609_4 	totalBusyTime 	0.000696
scalar MyScenario.node[300].veinsmobility 	startTime 	11
scalar MyScenario.node[300].veinsmobility 	totalTime 	37
scalar MyScenario.node[300].veinsmobility 	stopTime 	49
scalar MyScenario.node[300].veinsmobility 	minSpeed 	0.014060651131942
scalar MyScenario.node[300].veinsmobility 	maxSpeed 	13.846284502349
scalar MyScenario.node[300].veinsmobility 	totalDistance 	372.81647396798
scalar MyScenario.node[300].veinsmobility 	totalCO2Emission 	104.21649619823
scalar MyScenario.node[175].appl 	generatedWSMs 	1
scalar MyScenario.node[175].appl 	receivedWSMs 	2
scalar MyScenario.node[175].appl 	generatedBSMs 	0
scalar MyScenario.node[175].appl 	receivedBSMs 	0
scalar MyScenario.node[175].appl 	generatedWSAs 	0
scalar MyScenario.node[175].appl 	receivedWSAs 	0
scalar MyScenario.node[175].nic.phy80211p 	busyTime 	0.00012310204081633
scalar MyScenario.node[175].nic.mac1609_4 	ReceivedUnicastPackets 	0
scalar MyScenario.node[175].nic.mac1609_4 	ReceivedBroadcasts 	2
scalar MyScenario.node[175].nic.mac1609_4 	SentPackets 	1
scalar MyScenario.node[175].nic.mac1609_4 	SNIRLostPackets 	24
scalar MyScenario.node[175].nic.mac1609_4 	RXTXLostPackets 	14
scalar MyScenario.node[175].nic.mac1609_4 	TotalLostPackets 	38
scalar MyScenario.node[175].nic.mac1609_4 	DroppedPacketsInMac 	0
scalar MyScenario.node[175].nic.mac1609_4 	TooLittleTime 	0
scalar MyScenario.node[175].nic.mac1609_4 	TimesIntoBackoff 	1
scalar MyScenario.node[175].nic.mac1609_4 	SlotsBackoff 	1
scalar MyScenario.node[175].nic.mac1609_4 	NumInternalContention 	0
scalar MyScenario.node[175].nic.mac1609_4 	totalBusyTime 	0.002321
scalar MyScenario.node[175].veinsmobility 	startTime 	1
scalar MyScenario.node[175].veinsmobility 	totalTime 	48
scalar MyScenario.node[175].veinsmobility 	stopTime 	50
scalar MyScenario.node[175].veinsmobility 	minSpeed 	2.2860697876895
scalar MyScenario.node[175].veinsmobility 	maxSpeed 	13.835828228528
scalar MyScenario.node[175].veinsmobility 	totalDistance 	567.00122973156
scalar MyScenario.node[175].veinsmobility 	totalCO2Emission 	144.40451038448
scalar MyScenario.node[76].appl 	generatedWSMs 	0
scalar MyScenario.node[76].appl 	receivedWSMs 	0
scalar MyScenario.node[76].appl 	generatedBSMs 	0
scalar MyScenario.node[76].appl 	receivedBSMs 	0
scalar MyScenario.node[76].appl 	generatedWSAs 	0
scalar MyScenario.node[76].appl 	receivedWSAs 	0
scalar MyScenario.node[76].nic.phy80211p 	busyTime 	0
scalar MyScenario.node[76].nic.mac1609_4 	ReceivedUnicastPackets 	0
scalar MyScenario.node[76].nic.mac1609_4 	ReceivedBroadcasts 	0
scalar MyScenario.node[76].nic.mac1609_4 	SentPackets 	0
scalar MyScenario.node[76].nic.mac1609_4 	SNIRLostPackets 	0
scalar MyScenario.node[76].nic.mac1609_4 	RXTXLostPackets 	0
scalar MyScenario.node[76].nic.mac1609_4 	TotalLostPackets 	0
scalar MyScenario.node[76].nic.mac1609_4 	DroppedPacketsInMac 	0
scalar MyScenario.node[76].nic.mac1609_4 	TooLittleTime 	0
scalar MyScenario.node[76].nic.mac1609_4 	TimesIntoBackoff 	0
scalar MyScenario.node[76].nic.mac1609_4 	SlotsBackoff 	0
scalar MyScenario.node[76].nic.mac1609_4 	NumInternalContention 	0
scalar MyScenario.node[76].nic.mac1609_4 	totalBusyTime 	0
scalar MyScenario.node[76].veinsmobility 	startTime 	1
scalar MyScenario.node[76].veinsmobility 	totalTime 	48
scalar MyScenario.node[76].veinsmobility 	stopTime 	50
scalar MyScenario.node[76].veinsmobility 	minSpeed 	2.1680724802194
scalar MyScenario.node[76].veinsmobility 	maxSpeed 	13.857683780044
scalar MyScenario.node[76].veinsmobility 	totalDistance 	557.79460591343
scalar MyScenario.node[76].veinsmobility 	totalCO2Emission 	140.03295492803
scalar MyScenario.node[291].appl 	generatedWSMs 	1
scalar MyScenario.node[291].appl 	receivedWSMs 	2
scalar MyScenario.node[291].appl 	generatedBSMs 	0
scalar MyScenario.node[291].appl 	receivedBSMs 	0
scalar MyScenario.node[291].appl 	generatedWSAs 	0
scalar MyScenario.node[291].appl 	receivedWSAs 	0
scalar MyScenario.node[291].nic.phy80211p 	busyTime 	0.0001186976744186
scalar MyScenario.node[291].nic.mac1609_4 	ReceivedUnicastPackets 	0
scalar MyScenario.node[291].nic.mac1609_4 	ReceivedBroadcasts 	2
scalar MyScenario.node[291].nic.mac1609_4 	SentPackets 	1
scalar MyScenario.node[291].nic.mac1609_4 	SNIRLostPackets 	20
scalar MyScenario.node[291].nic.mac1609_4 	RXTXLostPackets 	9
scalar MyScenario.node[291].nic.mac1609_4 	TotalLostPackets 	29
scalar MyScenario.node[291].nic.mac1609_4 	DroppedPacketsInMac 	0
scalar MyScenario.node[291].nic.mac1609_4 	TooLittleTime 	0
scalar MyScenario.node[291].nic.mac1609_4 	TimesIntoBackoff 	1
scalar MyScenario.node[291].nic.mac1609_4 	SlotsBackoff 	3
scalar MyScenario.node[291].nic.mac1609_4 	NumInternalContention 	0
scalar MyScenario.node[291].nic.mac1609_4 	totalBusyTime 	0.00139319819
scalar MyScenario.node[291].veinsmobility 	startTime 	7
scalar MyScenario.node[291].veinsmobility 	totalTime 	42
scalar MyScenario.node[291].veinsmobility 	stopTime 	50
scalar MyScenario.node[291].veinsmobility 	minSpeed 	2.5213203962194
scalar MyScenario.node[291].veinsmobility 	maxSpeed 	13.80038643186
scalar MyScenario.node[291].veinsmobility 	totalDistance 	471.58580083799
scalar MyScenario.node[291].veinsmobility 	totalCO2Emission 	147.30115134726
scalar MyScenario.node[173].appl 	generatedWSMs 	1
scalar MyScenario.node[173].appl 	receivedWSMs 	9
scalar MyScenario.node[173].appl 	generatedBSMs 	0
scalar MyScenario.node[173].appl 	receivedBSMs 	0
scalar MyScenario.node[173].appl 	generatedWSAs 	0
scalar MyScenario.node[173].appl 	receivedWSAs 	0
scalar MyScenario.node[173].nic.phy80211p 	busyTime 	0.00025984
scalar MyScenario.node[173].nic.mac1609_4 	ReceivedUnicastPackets 	0
scalar MyScenario.node[173].nic.mac1609_4 	ReceivedBroadcasts 	9
scalar MyScenario.node[173].nic.mac1609_4 	SentPackets 	1
scalar MyScenario.node[173].nic.mac1609_4 	SNIRLostPackets 	47
scalar MyScenario.node[173].nic.mac1609_4 	RXTXLostPackets 	13
scalar MyScenario.node[173].nic.mac1609_4 	TotalLostPackets 	60
scalar MyScenario.node[173].nic.mac1609_4 	DroppedPacketsInMac 	0
scalar MyScenario.node[173].nic.mac1609_4 	TooLittleTime 	0
scalar MyScenario.node[173].nic.mac1609_4 	TimesIntoBackoff 	1
scalar MyScenario.node[173].nic.mac1609_4 	SlotsBackoff 	1
scalar MyScenario.node[173].nic.mac1609_4 	NumInternalContention 	0
scalar MyScenario.node[173].nic.mac1609_4 	totalBusyTime 	0.004409
scalar MyScenario.node[173].veinsmobility 	startTime 	1
scalar MyScenario.node[173].veinsmobility 	totalTime 	49
scalar MyScenario.node[173].veinsmobility 	stopTime 	51
scalar MyScenario.node[173].veinsmobility 	minSpeed 	1.5471287444932
scalar MyScenario.node[173].veinsmobility 	maxSpeed 	13.893488912075
scalar MyScenario.node[173].veinsmobility 	totalDistance 	565.23267954954
scalar MyScenario.node[173].veinsmobility 	totalCO2Emission 	133.06149754052
scalar MyScenario.node[133].appl 	generatedWSMs 	1
scalar MyScenario.node[133].appl 	receivedWSMs 	2
scalar MyScenario.node[133].appl 	generatedBSMs 	0
scalar MyScenario.node[133].appl 	receivedBSMs 	0
scalar MyScenario.node[133].appl 	generatedWSAs 	0
scalar MyScenario.node[133].appl 	receivedWSAs 	0
scalar MyScenario.node[133].nic.phy80211p 	busyTime 	6.96e-05
scalar MyScenario.node[133].nic.mac1609_4 	ReceivedUnicastPackets 	0
scalar MyScenario.node[133].nic.mac1609_4 	ReceivedBroadcasts 	2
scalar MyScenario.node[133].nic.mac1609_4 	SentPackets 	1
scalar MyScenario.node[133].nic.mac1609_4 	SNIRLostPackets 	13
scalar MyScenario.node[133].nic.mac1609_4 	RXTXLostPackets 	8
scalar MyScenario.node[133].nic.mac1609_4 	TotalLostPackets 	21
scalar MyScenario.node[133].nic.mac1609_4 	DroppedPacketsInMac 	0
scalar MyScenario.node[133].nic.mac1609_4 	TooLittleTime 	0
scalar MyScenario.node[133].nic.mac1609_4 	TimesIntoBackoff 	1
scalar MyScenario.node[133].nic.mac1609_4 	SlotsBackoff 	3
scalar MyScenario.node[133].nic.mac1609_4 	NumInternalContention 	0
scalar MyScenario.node[133].nic.mac1609_4 	totalBusyTime 	0.001625078498
scalar MyScenario.node[133].veinsmobility 	startTime 	1
scalar MyScenario.node[133].veinsmobility 	totalTime 	49
scalar MyScenario.node[133].veinsmobility 	stopTime 	51
scalar MyScenario.node[133].veinsmobility 	minSpeed 	1.8443845821777
scalar MyScenario.node[133].veinsmobility 	maxSpeed 	13.884724955121
scalar MyScenario.node[133].veinsmobility 	totalDistance 	573.18157685377
scalar MyScenario.node[133].veinsmobility 	totalCO2Emission 	145.39527794966
scalar MyScenario.node[128].appl 	generatedWSMs 	1
scalar MyScenario.node[128].appl 	receivedWSMs 	9
scalar MyScenario.node[128].appl 	generatedBSMs 	0
scalar MyScenario.node[128].appl 	receivedBSMs 	0
scalar MyScenario.node[128].appl 	generatedWSAs 	0
scalar MyScenario.node[128].appl 	receivedWSAs 	0
scalar MyScenario.node[128].nic.phy80211p 	busyTime 	0.00034117647058823
scalar MyScenario.node[128].nic.mac1609_4 	ReceivedUnicastPackets 	0
scalar MyScenario.node[128].nic.mac1609_4 	ReceivedBroadcasts 	9
scalar MyScenario.node[128].nic.mac1609_4 	SentPackets 	1
scalar MyScenario.node[128].nic.mac1609_4 	SNIRLostPackets 	66
scalar MyScenario.node[128].nic.mac1609_4 	RXTXLostPackets 	11
scalar MyScenario.node[128].nic.mac1609_4 	TotalLostPackets 	77
scalar MyScenario.node[128].nic.mac1609_4 	DroppedPacketsInMac 	0
scalar MyScenario.node[128].nic.mac1609_4 	TooLittleTime 	0
scalar MyScenario.node[128].nic.mac1609_4 	TimesIntoBackoff 	1
scalar MyScenario.node[128].nic.mac1609_4 	SlotsBackoff 	2
scalar MyScenario.node[128].nic.mac1609_4 	NumInternalContention 	0
scalar MyScenario.node[128].nic.mac1609_4 	totalBusyTime 	0.004177177762
scalar MyScenario.node[128].veinsmobility 	startTime 	1
scalar MyScenario.node[128].veinsmobility 	totalTime 	50
scalar MyScenario.node[128].veinsmobility 	stopTime 	52
scalar MyScenario.node[128].veinsmobility 	minSpeed 	0.015243111624864
scalar MyScenario.node[128].veinsmobility 	maxSpeed 	13.893647395843
scalar MyScenario.node[128].veinsmobility 	totalDistance 	467.68256330089
scalar MyScenario.node[128].veinsmobility 	totalCO2Emission 	138.34616606503
scalar MyScenario.node[152].appl 	generatedWSMs 	1
scalar MyScenario.node[152].appl 	receivedWSMs 	1
scalar MyScenario.node[152].appl 	generatedBSMs 	0
scalar MyScenario.node[152].appl 	receivedBSMs 	0
scalar MyScenario.node[152].appl 	generatedWSAs 	0
scalar MyScenario.node[152].appl 	receivedWSAs 	0
scalar MyScenario.node[152].nic.phy80211p 	busyTime 	5.9137254901961e-05
scalar MyScenario.node[152].nic.mac1609_4 	ReceivedUnicastPackets 	0
scalar MyScenario.node[152].nic.mac1609_4 	ReceivedBroadcasts 	1
scalar MyScenario.node[152].nic.mac1609_4 	SentPackets 	1
scalar MyScenario.node[152].nic.mac1609_4 	SNIRLostPackets 	12
scalar MyScenario.node[152].nic.mac1609_4 	RXTXLostPackets 	7
scalar MyScenario.node[152].nic.mac1609_4 	TotalLostPackets 	19
scalar MyScenario.node[152].nic.mac1609_4 	DroppedPacketsInMac 	0
scalar MyScenario.node[152].nic.mac1609_4 	TooLittleTime 	0
scalar MyScenario.node[152].nic.mac1609_4 	TimesIntoBackoff 	1
scalar MyScenario.node[152].nic.mac1609_4 	SlotsBackoff 	1
scalar MyScenario.node[152].nic.mac1609_4 	NumInternalContention 	0
scalar MyScenario.node[152].nic.mac1609_4 	totalBusyTime 	0.000697
scalar MyScenario.node[152].veinsmobility 	startTime 	1
scalar MyScenario.node[152].veinsmobility 	totalTime 	50
scalar MyScenario.node[152].veinsmobility 	stopTime 	52
scalar MyScenario.node[152].veinsmobility 	minSpeed 	1.7252746463288
scalar MyScenario.node[152].veinsmobility 	maxSpeed 	13.875790072745
scalar MyScenario.node[152].veinsmobility 	totalDistance 	573.23845293927
scalar MyScenario.node[152].veinsmobility 	totalCO2Emission 	152.74244289616
scalar MyScenario.node[304].appl 	generatedWSMs 	1
scalar MyScenario.node[304].appl 	receivedWSMs 	1
scalar MyScenario.node[304].appl 	generatedBSMs 	0
scalar MyScenario.node[304].appl 	receivedBSMs 	0
scalar MyScenario.node[304].appl 	generatedWSAs 	0
scalar MyScenario.node[304].appl 	receivedWSAs 	0
scalar MyScenario.node[304].nic.phy80211p 	busyTime 	7.5243243243243e-05
scalar MyScenario.node[304].nic.mac1609_4 	ReceivedUnicastPackets 	0
scalar MyScenario.node[304].nic.mac1609_4 	ReceivedBroadcasts 	1
scalar MyScenario.node[304].nic.mac1609_4 	SentPackets 	1
scalar MyScenario.node[304].nic.mac1609_4 	SNIRLostPackets 	11
scalar MyScenario.node[304].nic.mac1609_4 	RXTXLostPackets 	7
scalar MyScenario.node[304].nic.mac1609_4 	TotalLostPackets 	18
scalar MyScenario.node[304].nic.mac1609_4 	DroppedPacketsInMac 	0
scalar MyScenario.node[304].nic.mac1609_4 	TooLittleTime 	0
scalar MyScenario.node[304].nic.mac1609_4 	TimesIntoBackoff 	1
scalar MyScenario.node[304].nic.mac1609_4 	SlotsBackoff 	3
scalar MyScenario.node[304].nic.mac1609_4 	NumInternalContention 	0
scalar MyScenario.node[304].nic.mac1609_4 	totalBusyTime 	0.000929
scalar MyScenario.node[304].veinsmobility 	startTime 	15
scalar MyScenario.node[304].veinsmobility 	totalTime 	36
scalar MyScenario.node[304].veinsmobility 	stopTime 	52
scalar MyScenario.node[304].veinsmobility 	minSpeed 	12.617231101519
scalar MyScenario.node[304].veinsmobility 	maxSpeed 	13.894864141545
scalar MyScenario.node[304].veinsmobility 	totalDistance 	474.38636996721
scalar MyScenario.node[304].veinsmobility 	totalCO2Emission 	82.727709103931
scalar MyScenario.node[307].appl 	generatedWSMs 	1
scalar MyScenario.node[307].appl 	receivedWSMs 	1
scalar MyScenario.node[307].appl 	generatedBSMs 	0
scalar MyScenario.node[307].appl 	receivedBSMs 	0
scalar MyScenario.node[307].appl 	generatedWSAs 	0
scalar MyScenario.node[307].appl 	receivedWSAs 	0
scalar MyScenario.node[307].nic.phy80211p 	busyTime 	0.000522
scalar MyScenario.node[307].nic.mac1609_4 	ReceivedUnicastPackets 	0
scalar MyScenario.node[307].nic.mac1609_4 	ReceivedBroadcasts 	1
scalar MyScenario.node[307].nic.mac1609_4 	SentPackets 	1
scalar MyScenario.node[307].nic.mac1609_4 	SNIRLostPackets 	8
scalar MyScenario.node[307].nic.mac1609_4 	RXTXLostPackets 	0
scalar MyScenario.node[307].nic.mac1609_4 	TotalLostPackets 	8
scalar MyScenario.node[307].nic.mac1609_4 	DroppedPacketsInMac 	0
scalar MyScenario.node[307].nic.mac1609_4 	TooLittleTime 	0
scalar MyScenario.node[307].nic.mac1609_4 	TimesIntoBackoff 	1
scalar MyScenario.node[307].nic.mac1609_4 	SlotsBackoff 	2
scalar MyScenario.node[307].nic.mac1609_4 	NumInternalContention 	0
scalar MyScenario.node[307].nic.mac1609_4 	totalBusyTime 	0.000697
scalar MyScenario.node[307].veinsmobility 	startTime 	48
scalar MyScenario.node[307].veinsmobility 	totalTime 	3
scalar MyScenario.node[307].veinsmobility 	stopTime 	52
scalar MyScenario.node[307].veinsmobility 	minSpeed 	12.959309835522
scalar MyScenario.node[307].veinsmobility 	maxSpeed 	13.89531492989
scalar MyScenario.node[307].veinsmobility 	totalDistance 	40.227167094848
scalar MyScenario.node[307].veinsmobility 	totalCO2Emission 	1.946
scalar MyScenario.node[232].appl 	generatedWSMs 	0
scalar MyScenario.node[232].appl 	receivedWSMs 	0
scalar MyScenario.node[232].appl 	generatedBSMs 	0
scalar MyScenario.node[232].appl 	receivedBSMs 	0
scalar MyScenario.node[232].appl 	generatedWSAs 	0
scalar MyScenario.node[232].appl 	receivedWSAs 	0
scalar MyScenario.node[232].nic.phy80211p 	busyTime 	5.0039215686275e-05
[...]
scalar MyScenario.node[197].nic.mac1609_4 	TooLittleTime 	0
scalar MyScenario.node[197].nic.mac1609_4 	TimesIntoBackoff 	1
scalar MyScenario.node[197].nic.mac1609_4 	SlotsBackoff 	1
scalar MyScenario.node[197].nic.mac1609_4 	NumInternalContention 	0
scalar MyScenario.node[197].nic.mac1609_4 	totalBusyTime 	0.004641079235
scalar MyScenario.node[197].veinsmobility 	startTime 	4
scalar MyScenario.node[197].veinsmobility 	totalTime 	151
scalar MyScenario.node[197].veinsmobility 	stopTime 	156
scalar MyScenario.node[197].veinsmobility 	minSpeed 	2.4999057939921e-15
scalar MyScenario.node[197].veinsmobility 	maxSpeed 	13.890665510623
scalar MyScenario.node[197].veinsmobility 	totalDistance 	976.33092392284
scalar MyScenario.node[197].veinsmobility 	totalCO2Emission 	361.14347463224
scalar MyScenario.node[253].appl 	generatedWSMs 	1
scalar MyScenario.node[253].appl 	receivedWSMs 	31
scalar MyScenario.node[253].appl 	generatedBSMs 	0
scalar MyScenario.node[253].appl 	receivedBSMs 	0
scalar MyScenario.node[253].appl 	generatedWSAs 	0
scalar MyScenario.node[253].appl 	receivedWSAs 	0
scalar MyScenario.node[253].nic.phy80211p 	busyTime 	8.7184713375796e-05
scalar MyScenario.node[253].nic.mac1609_4 	ReceivedUnicastPackets 	0
scalar MyScenario.node[253].nic.mac1609_4 	ReceivedBroadcasts 	31
scalar MyScenario.node[253].nic.mac1609_4 	SentPackets 	1
scalar MyScenario.node[253].nic.mac1609_4 	SNIRLostPackets 	28
scalar MyScenario.node[253].nic.mac1609_4 	RXTXLostPackets 	5
scalar MyScenario.node[253].nic.mac1609_4 	TotalLostPackets 	33
scalar MyScenario.node[253].nic.mac1609_4 	DroppedPacketsInMac 	0
scalar MyScenario.node[253].nic.mac1609_4 	TooLittleTime 	0
scalar MyScenario.node[253].nic.mac1609_4 	TimesIntoBackoff 	1
scalar MyScenario.node[253].nic.mac1609_4 	SlotsBackoff 	1
scalar MyScenario.node[253].nic.mac1609_4 	NumInternalContention 	0
scalar MyScenario.node[253].nic.mac1609_4 	totalBusyTime 	0.009049077629
scalar MyScenario.node[253].veinsmobility 	startTime 	4
scalar MyScenario.node[253].veinsmobility 	totalTime 	156
scalar MyScenario.node[253].veinsmobility 	stopTime 	161
scalar MyScenario.node[253].veinsmobility 	minSpeed 	5.157665635386e-12
scalar MyScenario.node[253].veinsmobility 	maxSpeed 	13.895772518241
scalar MyScenario.node[253].veinsmobility 	totalDistance 	1262.0450542072
scalar MyScenario.node[253].veinsmobility 	totalCO2Emission 	432.51687211232
scalar MyScenario.node[17].appl 	generatedWSMs 	0
scalar MyScenario.node[17].appl 	receivedWSMs 	0
scalar MyScenario.node[17].appl 	generatedBSMs 	0
scalar MyScenario.node[17].appl 	receivedBSMs 	0
scalar MyScenario.node[17].appl 	generatedWSAs 	0
scalar MyScenario.node[17].appl 	receivedWSAs 	0
scalar MyScenario.node[17].nic.phy80211p 	busyTime 	4.1530864197531e-05
scalar MyScenario.node[17].nic.mac1609_4 	ReceivedUnicastPackets 	0
scalar MyScenario.node[17].nic.mac1609_4 	ReceivedBroadcasts 	0
scalar MyScenario.node[17].nic.mac1609_4 	SentPackets 	0
scalar MyScenario.node[17].nic.mac1609_4 	SNIRLostPackets 	29
scalar MyScenario.node[17].nic.mac1609_4 	RXTXLostPackets 	0
scalar MyScenario.node[17].nic.mac1609_4 	TotalLostPackets 	29
scalar MyScenario.node[17].nic.mac1609_4 	DroppedPacketsInMac 	0
scalar MyScenario.node[17].nic.mac1609_4 	TooLittleTime 	0
scalar MyScenario.node[17].nic.mac1609_4 	TimesIntoBackoff 	0
scalar MyScenario.node[17].nic.mac1609_4 	SlotsBackoff 	0
scalar MyScenario.node[17].nic.mac1609_4 	NumInternalContention 	0
scalar MyScenario.node[17].nic.mac1609_4 	totalBusyTime 	0.00116
scalar MyScenario.node[17].veinsmobility 	startTime 	1
scalar MyScenario.node[17].veinsmobility 	totalTime 	161
scalar MyScenario.node[17].veinsmobility 	stopTime 	163
scalar MyScenario.node[17].veinsmobility 	minSpeed 	0.0081684624777347
scalar MyScenario.node[17].veinsmobility 	maxSpeed 	13.884362249332
scalar MyScenario.node[17].veinsmobility 	totalDistance 	1569.7057078908
scalar MyScenario.node[17].veinsmobility 	totalCO2Emission 	486.10930746524
scalar MyScenario.node[25].appl 	generatedWSMs 	0
scalar MyScenario.node[25].appl 	receivedWSMs 	0
scalar MyScenario.node[25].appl 	generatedBSMs 	0
scalar MyScenario.node[25].appl 	receivedBSMs 	0
scalar MyScenario.node[25].appl 	generatedWSAs 	0
scalar MyScenario.node[25].appl 	receivedWSAs 	0
scalar MyScenario.node[25].nic.phy80211p 	busyTime 	8.4878048780488e-06
scalar MyScenario.node[25].nic.mac1609_4 	ReceivedUnicastPackets 	0
scalar MyScenario.node[25].nic.mac1609_4 	ReceivedBroadcasts 	0
scalar MyScenario.node[25].nic.mac1609_4 	SentPackets 	0
scalar MyScenario.node[25].nic.mac1609_4 	SNIRLostPackets 	6
scalar MyScenario.node[25].nic.mac1609_4 	RXTXLostPackets 	0
scalar MyScenario.node[25].nic.mac1609_4 	TotalLostPackets 	6
scalar MyScenario.node[25].nic.mac1609_4 	DroppedPacketsInMac 	0
scalar MyScenario.node[25].nic.mac1609_4 	TooLittleTime 	0
scalar MyScenario.node[25].nic.mac1609_4 	TimesIntoBackoff 	0
scalar MyScenario.node[25].nic.mac1609_4 	SlotsBackoff 	0
scalar MyScenario.node[25].nic.mac1609_4 	NumInternalContention 	0
scalar MyScenario.node[25].nic.mac1609_4 	totalBusyTime 	0.000464
scalar MyScenario.node[25].veinsmobility 	startTime 	1
scalar MyScenario.node[25].veinsmobility 	totalTime 	163
scalar MyScenario.node[25].veinsmobility 	stopTime 	165
scalar MyScenario.node[25].veinsmobility 	minSpeed 	1.6449514197397
scalar MyScenario.node[25].veinsmobility 	maxSpeed 	13.892930728989
scalar MyScenario.node[25].veinsmobility 	totalDistance 	1769.1581646183
scalar MyScenario.node[25].veinsmobility 	totalCO2Emission 	498.45508969657
scalar MyScenario.node[273].appl 	generatedWSMs 	1
scalar MyScenario.node[273].appl 	receivedWSMs 	4
scalar MyScenario.node[273].appl 	generatedBSMs 	0
scalar MyScenario.node[273].appl 	receivedBSMs 	0
scalar MyScenario.node[273].appl 	generatedWSAs 	0
scalar MyScenario.node[273].appl 	receivedWSAs 	0
scalar MyScenario.node[273].nic.phy80211p 	busyTime 	2.4345679012346e-05
scalar MyScenario.node[273].nic.mac1609_4 	ReceivedUnicastPackets 	0
scalar MyScenario.node[273].nic.mac1609_4 	ReceivedBroadcasts 	4
scalar MyScenario.node[273].nic.mac1609_4 	SentPackets 	1
scalar MyScenario.node[273].nic.mac1609_4 	SNIRLostPackets 	13
scalar MyScenario.node[273].nic.mac1609_4 	RXTXLostPackets 	9
scalar MyScenario.node[273].nic.mac1609_4 	TotalLostPackets 	22
scalar MyScenario.node[273].nic.mac1609_4 	DroppedPacketsInMac 	0
scalar MyScenario.node[273].nic.mac1609_4 	TooLittleTime 	0
scalar MyScenario.node[273].nic.mac1609_4 	TimesIntoBackoff 	1
scalar MyScenario.node[273].nic.mac1609_4 	SlotsBackoff 	1
scalar MyScenario.node[273].nic.mac1609_4 	NumInternalContention 	0
scalar MyScenario.node[273].nic.mac1609_4 	totalBusyTime 	0.002321
scalar MyScenario.node[273].veinsmobility 	startTime 	4
scalar MyScenario.node[273].veinsmobility 	totalTime 	161
scalar MyScenario.node[273].veinsmobility 	stopTime 	166
scalar MyScenario.node[273].veinsmobility 	minSpeed 	4.4097249528893e-15
scalar MyScenario.node[273].veinsmobility 	maxSpeed 	13.890478413017
scalar MyScenario.node[273].veinsmobility 	totalDistance 	1169.4993126744
scalar MyScenario.node[273].veinsmobility 	totalCO2Emission 	446.62492215585
scalar MyScenario.node[230].appl 	generatedWSMs 	0
scalar MyScenario.node[230].appl 	receivedWSMs 	0
scalar MyScenario.node[230].appl 	generatedBSMs 	0
scalar MyScenario.node[230].appl 	receivedBSMs 	0
scalar MyScenario.node[230].appl 	generatedWSAs 	0
scalar MyScenario.node[230].appl 	receivedWSAs 	0
scalar MyScenario.node[230].nic.phy80211p 	busyTime 	8.2857142857143e-06
scalar MyScenario.node[230].nic.mac1609_4 	ReceivedUnicastPackets 	0
scalar MyScenario.node[230].nic.mac1609_4 	ReceivedBroadcasts 	0
scalar MyScenario.node[230].nic.mac1609_4 	SentPackets 	0
scalar MyScenario.node[230].nic.mac1609_4 	SNIRLostPackets 	6
scalar MyScenario.node[230].nic.mac1609_4 	RXTXLostPackets 	0
scalar MyScenario.node[230].nic.mac1609_4 	TotalLostPackets 	6
scalar MyScenario.node[230].nic.mac1609_4 	DroppedPacketsInMac 	0
scalar MyScenario.node[230].nic.mac1609_4 	TooLittleTime 	0
scalar MyScenario.node[230].nic.mac1609_4 	TimesIntoBackoff 	0
scalar MyScenario.node[230].nic.mac1609_4 	SlotsBackoff 	0
scalar MyScenario.node[230].nic.mac1609_4 	NumInternalContention 	0
scalar MyScenario.node[230].nic.mac1609_4 	totalBusyTime 	0.000464
scalar MyScenario.node[230].veinsmobility 	startTime 	4
scalar MyScenario.node[230].veinsmobility 	totalTime 	167
scalar MyScenario.node[230].veinsmobility 	stopTime 	172
scalar MyScenario.node[230].veinsmobility 	minSpeed 	2.1618358992971
scalar MyScenario.node[230].veinsmobility 	maxSpeed 	13.893741588295
scalar MyScenario.node[230].veinsmobility 	totalDistance 	1766.4281863053
scalar MyScenario.node[230].veinsmobility 	totalCO2Emission 	514.40795605441
scalar MyScenario.node[150].appl 	generatedWSMs 	1
scalar MyScenario.node[150].appl 	receivedWSMs 	4
scalar MyScenario.node[150].appl 	generatedBSMs 	0
scalar MyScenario.node[150].appl 	receivedBSMs 	0
scalar MyScenario.node[150].appl 	generatedWSAs 	0
scalar MyScenario.node[150].appl 	receivedWSAs 	0
scalar MyScenario.node[150].nic.phy80211p 	busyTime 	4e-05
scalar MyScenario.node[150].nic.mac1609_4 	ReceivedUnicastPackets 	0
scalar MyScenario.node[150].nic.mac1609_4 	ReceivedBroadcasts 	4
scalar MyScenario.node[150].nic.mac1609_4 	SentPackets 	1
scalar MyScenario.node[150].nic.mac1609_4 	SNIRLostPackets 	26
scalar MyScenario.node[150].nic.mac1609_4 	RXTXLostPackets 	4
scalar MyScenario.node[150].nic.mac1609_4 	TotalLostPackets 	30
scalar MyScenario.node[150].nic.mac1609_4 	DroppedPacketsInMac 	0
scalar MyScenario.node[150].nic.mac1609_4 	TooLittleTime 	0
scalar MyScenario.node[150].nic.mac1609_4 	TimesIntoBackoff 	1
scalar MyScenario.node[150].nic.mac1609_4 	SlotsBackoff 	3
scalar MyScenario.node[150].nic.mac1609_4 	NumInternalContention 	0
scalar MyScenario.node[150].nic.mac1609_4 	totalBusyTime 	0.003017046832
scalar MyScenario.node[150].veinsmobility 	startTime 	1
scalar MyScenario.node[150].veinsmobility 	totalTime 	173
scalar MyScenario.node[150].veinsmobility 	stopTime 	175
scalar MyScenario.node[150].veinsmobility 	minSpeed 	3.3882940751598e-15
scalar MyScenario.node[150].veinsmobility 	maxSpeed 	13.88662223951
scalar MyScenario.node[150].veinsmobility 	totalDistance 	1184.242927156
scalar MyScenario.node[150].veinsmobility 	totalCO2Emission 	479.14362346823
scalar MyScenario.node[243].appl 	generatedWSMs 	1
scalar MyScenario.node[243].appl 	receivedWSMs 	4
scalar MyScenario.node[243].appl 	generatedBSMs 	0
scalar MyScenario.node[243].appl 	receivedBSMs 	0
scalar MyScenario.node[243].appl 	generatedWSAs 	0
scalar MyScenario.node[243].appl 	receivedWSAs 	0
scalar MyScenario.node[243].nic.phy80211p 	busyTime 	5.5302325581395e-05
scalar MyScenario.node[243].nic.mac1609_4 	ReceivedUnicastPackets 	0
scalar MyScenario.node[243].nic.mac1609_4 	ReceivedBroadcasts 	4
scalar MyScenario.node[243].nic.mac1609_4 	SentPackets 	1
scalar MyScenario.node[243].nic.mac1609_4 	SNIRLostPackets 	37
scalar MyScenario.node[243].nic.mac1609_4 	RXTXLostPackets 	9
scalar MyScenario.node[243].nic.mac1609_4 	TotalLostPackets 	46
scalar MyScenario.node[243].nic.mac1609_4 	DroppedPacketsInMac 	0
scalar MyScenario.node[243].nic.mac1609_4 	TooLittleTime 	0
scalar MyScenario.node[243].nic.mac1609_4 	TimesIntoBackoff 	1
scalar MyScenario.node[243].nic.mac1609_4 	SlotsBackoff 	3
scalar MyScenario.node[243].nic.mac1609_4 	NumInternalContention 	0
scalar MyScenario.node[243].nic.mac1609_4 	totalBusyTime 	0.002553022986
scalar MyScenario.node[243].veinsmobility 	startTime 	4
scalar MyScenario.node[243].veinsmobility 	totalTime 	171
scalar MyScenario.node[243].veinsmobility 	stopTime 	176
scalar MyScenario.node[243].veinsmobility 	minSpeed 	0.00011703613300505
scalar MyScenario.node[243].veinsmobility 	maxSpeed 	13.893739873008
scalar MyScenario.node[243].veinsmobility 	totalDistance 	1463.3149480353
scalar MyScenario.node[243].veinsmobility 	totalCO2Emission 	484.33489620401
scalar MyScenario.node[38].appl 	generatedWSMs 	1
scalar MyScenario.node[38].appl 	receivedWSMs 	2
scalar MyScenario.node[38].appl 	generatedBSMs 	0
scalar MyScenario.node[38].appl 	receivedBSMs 	0
scalar MyScenario.node[38].appl 	generatedWSAs 	0
scalar MyScenario.node[38].appl 	receivedWSAs 	0
scalar MyScenario.node[38].nic.phy80211p 	busyTime 	3.6700564971751e-05
scalar MyScenario.node[38].nic.mac1609_4 	ReceivedUnicastPackets 	0
scalar MyScenario.node[38].nic.mac1609_4 	ReceivedBroadcasts 	2
scalar MyScenario.node[38].nic.mac1609_4 	SentPackets 	1
scalar MyScenario.node[38].nic.mac1609_4 	SNIRLostPackets 	26
scalar MyScenario.node[38].nic.mac1609_4 	RXTXLostPackets 	11
scalar MyScenario.node[38].nic.mac1609_4 	TotalLostPackets 	37
scalar MyScenario.node[38].nic.mac1609_4 	DroppedPacketsInMac 	0
scalar MyScenario.node[38].nic.mac1609_4 	TooLittleTime 	0
scalar MyScenario.node[38].nic.mac1609_4 	TimesIntoBackoff 	1
scalar MyScenario.node[38].nic.mac1609_4 	SlotsBackoff 	1
scalar MyScenario.node[38].nic.mac1609_4 	NumInternalContention 	0
scalar MyScenario.node[38].nic.mac1609_4 	totalBusyTime 	0.00162509041
scalar MyScenario.node[38].veinsmobility 	startTime 	1
scalar MyScenario.node[38].veinsmobility 	totalTime 	176
scalar MyScenario.node[38].veinsmobility 	stopTime 	178
scalar MyScenario.node[38].veinsmobility 	minSpeed 	2.6458383927983e-06
scalar MyScenario.node[38].veinsmobility 	maxSpeed 	13.896344830724
scalar MyScenario.node[38].veinsmobility 	totalDistance 	1474.4336560768
scalar MyScenario.node[38].veinsmobility 	totalCO2Emission 	482.60994045974
scalar MyScenario.node[103].appl 	generatedWSMs 	1
scalar MyScenario.node[103].appl 	receivedWSMs 	1
scalar MyScenario.node[103].appl 	generatedBSMs 	0
scalar MyScenario.node[103].appl 	receivedBSMs 	0
scalar MyScenario.node[103].appl 	generatedWSAs 	0
scalar MyScenario.node[103].appl 	receivedWSAs 	0
scalar MyScenario.node[103].nic.phy80211p 	busyTime 	4.2298342541436e-05
scalar MyScenario.node[103].nic.mac1609_4 	ReceivedUnicastPackets 	0
scalar MyScenario.node[103].nic.mac1609_4 	ReceivedBroadcasts 	1
scalar MyScenario.node[103].nic.mac1609_4 	SentPackets 	1
scalar MyScenario.node[103].nic.mac1609_4 	SNIRLostPackets 	32
scalar MyScenario.node[103].nic.mac1609_4 	RXTXLostPackets 	7
scalar MyScenario.node[103].nic.mac1609_4 	TotalLostPackets 	39
scalar MyScenario.node[103].nic.mac1609_4 	DroppedPacketsInMac 	0
scalar MyScenario.node[103].nic.mac1609_4 	TooLittleTime 	0
scalar MyScenario.node[103].nic.mac1609_4 	TimesIntoBackoff 	1
scalar MyScenario.node[103].nic.mac1609_4 	SlotsBackoff 	1
scalar MyScenario.node[103].nic.mac1609_4 	NumInternalContention 	0
scalar MyScenario.node[103].nic.mac1609_4 	totalBusyTime 	0.002089003913
scalar MyScenario.node[103].veinsmobility 	startTime 	1
scalar MyScenario.node[103].veinsmobility 	totalTime 	180
scalar MyScenario.node[103].veinsmobility 	stopTime 	182
scalar MyScenario.node[103].veinsmobility 	minSpeed 	0.002003628786243
scalar MyScenario.node[103].veinsmobility 	maxSpeed 	13.885034805443
scalar MyScenario.node[103].veinsmobility 	totalDistance 	1264.2376425752
scalar MyScenario.node[103].veinsmobility 	totalCO2Emission 	499.36128235566
scalar MyScenario.node[302].appl 	generatedWSMs 	1
scalar MyScenario.node[302].appl 	receivedWSMs 	26
scalar MyScenario.node[302].appl 	generatedBSMs 	0
scalar MyScenario.node[302].appl 	receivedBSMs 	0
scalar MyScenario.node[302].appl 	generatedWSAs 	0
scalar MyScenario.node[302].appl 	receivedWSAs 	0
scalar MyScenario.node[302].nic.phy80211p 	busyTime 	6.3766081871345e-05
scalar MyScenario.node[302].nic.mac1609_4 	ReceivedUnicastPackets 	0
scalar MyScenario.node[302].nic.mac1609_4 	ReceivedBroadcasts 	26
scalar MyScenario.node[302].nic.mac1609_4 	SentPackets 	1
scalar MyScenario.node[302].nic.mac1609_4 	SNIRLostPackets 	21
scalar MyScenario.node[302].nic.mac1609_4 	RXTXLostPackets 	1
scalar MyScenario.node[302].nic.mac1609_4 	TotalLostPackets 	22
scalar MyScenario.node[302].nic.mac1609_4 	DroppedPacketsInMac 	0
scalar MyScenario.node[302].nic.mac1609_4 	TooLittleTime 	0
scalar MyScenario.node[302].nic.mac1609_4 	TimesIntoBackoff 	1
scalar MyScenario.node[302].nic.mac1609_4 	SlotsBackoff 	3
scalar MyScenario.node[302].nic.mac1609_4 	NumInternalContention 	0
scalar MyScenario.node[302].nic.mac1609_4 	totalBusyTime 	0.007193095019
scalar MyScenario.node[302].veinsmobility 	startTime 	12
scalar MyScenario.node[302].veinsmobility 	totalTime 	170
scalar MyScenario.node[302].veinsmobility 	stopTime 	183
scalar MyScenario.node[302].veinsmobility 	minSpeed 	7.3258779019482e-05
scalar MyScenario.node[302].veinsmobility 	maxSpeed 	13.884276468051
scalar MyScenario.node[302].veinsmobility 	totalDistance 	1467.2965136527
scalar MyScenario.node[302].veinsmobility 	totalCO2Emission 	473.69737984238
scalar MyScenario.node[296].appl 	generatedWSMs 	1
scalar MyScenario.node[296].appl 	receivedWSMs 	4
scalar MyScenario.node[296].appl 	generatedBSMs 	0
scalar MyScenario.node[296].appl 	receivedBSMs 	0
scalar MyScenario.node[296].appl 	generatedWSAs 	0
scalar MyScenario.node[296].appl 	receivedWSAs 	0
scalar MyScenario.node[296].nic.phy80211p 	busyTime 	3.8032786885246e-05
scalar MyScenario.node[296].nic.mac1609_4 	ReceivedUnicastPackets 	0
scalar MyScenario.node[296].nic.mac1609_4 	ReceivedBroadcasts 	4
scalar MyScenario.node[296].nic.mac1609_4 	SentPackets 	1
scalar MyScenario.node[296].nic.mac1609_4 	SNIRLostPackets 	26
scalar MyScenario.node[296].nic.mac1609_4 	RXTXLostPackets 	9
scalar MyScenario.node[296].nic.mac1609_4 	TotalLostPackets 	35
scalar MyScenario.node[296].nic.mac1609_4 	DroppedPacketsInMac 	0
scalar MyScenario.node[296].nic.mac1609_4 	TooLittleTime 	0
scalar MyScenario.node[296].nic.mac1609_4 	TimesIntoBackoff 	1
scalar MyScenario.node[296].nic.mac1609_4 	SlotsBackoff 	1
scalar MyScenario.node[296].nic.mac1609_4 	NumInternalContention 	0
scalar MyScenario.node[296].nic.mac1609_4 	totalBusyTime 	0.002321298508
scalar MyScenario.node[296].veinsmobility 	startTime 	7
scalar MyScenario.node[296].veinsmobility 	totalTime 	182
scalar MyScenario.node[296].veinsmobility 	stopTime 	190
scalar MyScenario.node[296].veinsmobility 	minSpeed 	0.00012704792944957
scalar MyScenario.node[296].veinsmobility 	maxSpeed 	13.890636769659
scalar MyScenario.node[296].veinsmobility 	totalDistance 	1462.0195706884
scalar MyScenario.node[296].veinsmobility 	totalCO2Emission 	485.97715451817
scalar MyScenario.node[210].appl 	generatedWSMs 	1
scalar MyScenario.node[210].appl 	receivedWSMs 	1
scalar MyScenario.node[210].appl 	generatedBSMs 	0
scalar MyScenario.node[210].appl 	receivedBSMs 	0
scalar MyScenario.node[210].appl 	generatedWSAs 	0
scalar MyScenario.node[210].appl 	receivedWSAs 	0
scalar MyScenario.node[210].nic.phy80211p 	busyTime 	2.1607843137255e-05
scalar MyScenario.node[210].nic.mac1609_4 	ReceivedUnicastPackets 	0
scalar MyScenario.node[210].nic.mac1609_4 	ReceivedBroadcasts 	1
scalar MyScenario.node[210].nic.mac1609_4 	SentPackets 	1
scalar MyScenario.node[210].nic.mac1609_4 	SNIRLostPackets 	18
scalar MyScenario.node[210].nic.mac1609_4 	RXTXLostPackets 	7
scalar MyScenario.node[210].nic.mac1609_4 	TotalLostPackets 	25
scalar MyScenario.node[210].nic.mac1609_4 	DroppedPacketsInMac 	0
scalar MyScenario.node[210].nic.mac1609_4 	TooLittleTime 	0
scalar MyScenario.node[210].nic.mac1609_4 	TimesIntoBackoff 	1
scalar MyScenario.node[210].nic.mac1609_4 	SlotsBackoff 	0
scalar MyScenario.node[210].nic.mac1609_4 	NumInternalContention 	0
scalar MyScenario.node[210].nic.mac1609_4 	totalBusyTime 	0.001857054689
scalar MyScenario.node[210].veinsmobility 	startTime 	4
scalar MyScenario.node[210].veinsmobility 	totalTime 	203
scalar MyScenario.node[210].veinsmobility 	stopTime 	208
scalar MyScenario.node[210].veinsmobility 	minSpeed 	6.1656901452745e-05
scalar MyScenario.node[210].veinsmobility 	maxSpeed 	13.887094621942
scalar MyScenario.node[210].veinsmobility 	totalDistance 	1569.9916017431
scalar MyScenario.node[210].veinsmobility 	totalCO2Emission 	540.74741403914
