version 2
run General-15-20170829-17:39:41-8100
attr configname General
attr datetime 20170829-17:39:41
attr density 200
attr experiment General
attr inifile omnetpp.ini
attr iterationvars $density=200
attr iterationvars2 "$density=200, $repetition=5"
attr measurement $density=200
attr network com.liborio.pi.MyScenario
attr processid 8100
attr repetition 5
attr replication #5
attr resultdir results
attr runnumber 15
attr seedset 5
param **.coreDebug false
param **.debug false
param *.**.nic.mac1609_4.bitrate 6Mbps
param *.**.nic.mac1609_4.txPower 20mW
param *.**.nic.mac1609_4.useServiceChannel true
param *.**.nic.phy80211p.analogueModels "xmldoc(\"config.xml\")"
param *.**.nic.phy80211p.antenna "xmldoc(\"antenna.xml\", \"/root/Antenna[@id='monopole']\")"
param *.**.nic.phy80211p.decider "xmldoc(\"config.xml\")"
param *.**.nic.phy80211p.sensitivity -84.39dBm
param *.**.nic.phy80211p.thermalNoise -110dBm
param *.**.nic.phy80211p.usePropagationDelay true
param *.**.nic.phy80211p.useThermalNoise true
param *.annotations.draw true
param *.connectionManager.drawMaxIntfDist false
param *.connectionManager.maxInterfDist 2600m
param *.connectionManager.sendDirect true
param *.manager.autoShutdown true
param *.manager.host "\"localhost\""
param *.manager.launchConfig "xmldoc(string(${density = 100, 200, 300, 400})+\"_\"+ string(${repetition})+\".launchd.xml\")"
param *.manager.port 9999
param *.manager.updateInterval 1s
param *.node[*].appl.beaconInterval 1s
param *.node[*].appl.dataOnSch true
param *.node[*].appl.headerLength "80 bit"
param *.node[*].appl.isSource false
param *.node[*].appl.numMsgs 100
param *.node[*].appl.sendBeacons false
param *.node[*].appl.stopTrafficTime 130s
param *.node[*].appl.wsmInterval 3s
param *.node[*].applType "\"Flooding\""
param *.node[*].veinsmobility.x 0
param *.node[*].veinsmobility.y 0
param *.node[*].veinsmobility.z 1.895
param *.node[*].veinsmobilityType.debug true
param *.node[0].appl.isSource true
param *.playgroundSizeX 2500m
param *.playgroundSizeY 2500m
param *.playgroundSizeZ 50m

scalar . 	density 	200
scalar MyScenario.node[122].appl 	generatedWSMs 	1
scalar MyScenario.node[122].appl 	receivedWSMs 	1
scalar MyScenario.node[122].appl 	generatedBSMs 	0
scalar MyScenario.node[122].appl 	receivedBSMs 	0
scalar MyScenario.node[122].appl 	generatedWSAs 	0
scalar MyScenario.node[122].appl 	receivedWSAs 	0
scalar MyScenario.node[122].nic.phy80211p 	busyTime 	6.96e-05
scalar MyScenario.node[122].nic.mac1609_4 	ReceivedUnicastPackets 	0
scalar MyScenario.node[122].nic.mac1609_4 	ReceivedBroadcasts 	1
scalar MyScenario.node[122].nic.mac1609_4 	SentPackets 	1
scalar MyScenario.node[122].nic.mac1609_4 	SNIRLostPackets 	2
scalar MyScenario.node[122].nic.mac1609_4 	RXTXLostPackets 	5
scalar MyScenario.node[122].nic.mac1609_4 	TotalLostPackets 	7
scalar MyScenario.node[122].nic.mac1609_4 	DroppedPacketsInMac 	0
scalar MyScenario.node[122].nic.mac1609_4 	TooLittleTime 	0
scalar MyScenario.node[122].nic.mac1609_4 	TimesIntoBackoff 	1
scalar MyScenario.node[122].nic.mac1609_4 	SlotsBackoff 	3
scalar MyScenario.node[122].nic.mac1609_4 	NumInternalContention 	0
scalar MyScenario.node[122].nic.mac1609_4 	totalBusyTime 	0.000697
scalar MyScenario.node[122].veinsmobility 	startTime 	1
scalar MyScenario.node[122].veinsmobility 	totalTime 	9
scalar MyScenario.node[122].veinsmobility 	stopTime 	11
scalar MyScenario.node[122].veinsmobility 	minSpeed 	2.1738880183548
scalar MyScenario.node[122].veinsmobility 	maxSpeed 	13.427573039383
scalar MyScenario.node[122].veinsmobility 	totalDistance 	83.060871954099
scalar MyScenario.node[122].veinsmobility 	totalCO2Emission 	36.807031712221
scalar MyScenario.node[94].appl 	generatedWSMs 	0
scalar MyScenario.node[94].appl 	receivedWSMs 	0
scalar MyScenario.node[94].appl 	generatedBSMs 	0
scalar MyScenario.node[94].appl 	receivedBSMs 	0
scalar MyScenario.node[94].appl 	generatedWSAs 	0
scalar MyScenario.node[94].appl 	receivedWSAs 	0
scalar MyScenario.node[94].nic.phy80211p 	busyTime 	0.000232
scalar MyScenario.node[94].nic.mac1609_4 	ReceivedUnicastPackets 	0
scalar MyScenario.node[94].nic.mac1609_4 	ReceivedBroadcasts 	0
scalar MyScenario.node[94].nic.mac1609_4 	SentPackets 	0
scalar MyScenario.node[94].nic.mac1609_4 	SNIRLostPackets 	10
scalar MyScenario.node[94].nic.mac1609_4 	RXTXLostPackets 	0
scalar MyScenario.node[94].nic.mac1609_4 	TotalLostPackets 	10
scalar MyScenario.node[94].nic.mac1609_4 	DroppedPacketsInMac 	0
scalar MyScenario.node[94].nic.mac1609_4 	TooLittleTime 	0
scalar MyScenario.node[94].nic.mac1609_4 	TimesIntoBackoff 	0
scalar MyScenario.node[94].nic.mac1609_4 	SlotsBackoff 	0
scalar MyScenario.node[94].nic.mac1609_4 	NumInternalContention 	0
scalar MyScenario.node[94].nic.mac1609_4 	totalBusyTime 	0.00116
scalar MyScenario.node[94].veinsmobility 	startTime 	1
scalar MyScenario.node[94].veinsmobility 	totalTime 	9
scalar MyScenario.node[94].veinsmobility 	stopTime 	11
scalar MyScenario.node[94].veinsmobility 	minSpeed 	1.8826014371822
scalar MyScenario.node[94].veinsmobility 	maxSpeed 	13.877259363909
scalar MyScenario.node[94].veinsmobility 	totalDistance 	84.667662024428
scalar MyScenario.node[94].veinsmobility 	totalCO2Emission 	41.761676124317
scalar MyScenario.node[25].appl 	generatedWSMs 	0
scalar MyScenario.node[25].appl 	receivedWSMs 	0
scalar MyScenario.node[25].appl 	generatedBSMs 	0
scalar MyScenario.node[25].appl 	receivedBSMs 	0
scalar MyScenario.node[25].appl 	generatedWSAs 	0
scalar MyScenario.node[25].appl 	receivedWSAs 	0
scalar MyScenario.node[25].nic.phy80211p 	busyTime 	0.00014763636363636
scalar MyScenario.node[25].nic.mac1609_4 	ReceivedUnicastPackets 	0
scalar MyScenario.node[25].nic.mac1609_4 	ReceivedBroadcasts 	0
scalar MyScenario.node[25].nic.mac1609_4 	SentPackets 	0
scalar MyScenario.node[25].nic.mac1609_4 	SNIRLostPackets 	7
scalar MyScenario.node[25].nic.mac1609_4 	RXTXLostPackets 	0
scalar MyScenario.node[25].nic.mac1609_4 	TotalLostPackets 	7
scalar MyScenario.node[25].nic.mac1609_4 	DroppedPacketsInMac 	0
scalar MyScenario.node[25].nic.mac1609_4 	TooLittleTime 	0
scalar MyScenario.node[25].nic.mac1609_4 	TimesIntoBackoff 	0
scalar MyScenario.node[25].nic.mac1609_4 	SlotsBackoff 	0
scalar MyScenario.node[25].nic.mac1609_4 	NumInternalContention 	0
scalar MyScenario.node[25].nic.mac1609_4 	totalBusyTime 	0.000232
scalar MyScenario.node[25].veinsmobility 	startTime 	1
scalar MyScenario.node[25].veinsmobility 	totalTime 	10
scalar MyScenario.node[25].veinsmobility 	stopTime 	12
scalar MyScenario.node[25].veinsmobility 	minSpeed 	1.8032767669763
scalar MyScenario.node[25].veinsmobility 	maxSpeed 	13.228519090149
scalar MyScenario.node[25].veinsmobility 	totalDistance 	92.02035206037
scalar MyScenario.node[25].veinsmobility 	totalCO2Emission 	38.229440595293
scalar MyScenario.node[30].appl 	generatedWSMs 	0
scalar MyScenario.node[30].appl 	receivedWSMs 	0
scalar MyScenario.node[30].appl 	generatedBSMs 	0
scalar MyScenario.node[30].appl 	receivedBSMs 	0
scalar MyScenario.node[30].appl 	generatedWSAs 	0
scalar MyScenario.node[30].appl 	receivedWSAs 	0
scalar MyScenario.node[30].nic.phy80211p 	busyTime 	0
scalar MyScenario.node[30].nic.mac1609_4 	ReceivedUnicastPackets 	0
scalar MyScenario.node[30].nic.mac1609_4 	ReceivedBroadcasts 	0
scalar MyScenario.node[30].nic.mac1609_4 	SentPackets 	0
scalar MyScenario.node[30].nic.mac1609_4 	SNIRLostPackets 	0
scalar MyScenario.node[30].nic.mac1609_4 	RXTXLostPackets 	0
scalar MyScenario.node[30].nic.mac1609_4 	TotalLostPackets 	0
scalar MyScenario.node[30].nic.mac1609_4 	DroppedPacketsInMac 	0
scalar MyScenario.node[30].nic.mac1609_4 	TooLittleTime 	0
scalar MyScenario.node[30].nic.mac1609_4 	TimesIntoBackoff 	0
scalar MyScenario.node[30].nic.mac1609_4 	SlotsBackoff 	0
scalar MyScenario.node[30].nic.mac1609_4 	NumInternalContention 	0
scalar MyScenario.node[30].nic.mac1609_4 	totalBusyTime 	0
scalar MyScenario.node[30].veinsmobility 	startTime 	1
scalar MyScenario.node[30].veinsmobility 	totalTime 	16
scalar MyScenario.node[30].veinsmobility 	stopTime 	18
scalar MyScenario.node[30].veinsmobility 	minSpeed 	2.3262842418393
scalar MyScenario.node[30].veinsmobility 	maxSpeed 	13.866852425085
scalar MyScenario.node[30].veinsmobility 	totalDistance 	182.66763084033
scalar MyScenario.node[30].veinsmobility 	totalCO2Emission 	52.261257659515
scalar MyScenario.node[6].appl 	generatedWSMs 	0
scalar MyScenario.node[6].appl 	receivedWSMs 	0
scalar MyScenario.node[6].appl 	generatedBSMs 	0
scalar MyScenario.node[6].appl 	receivedBSMs 	0
scalar MyScenario.node[6].appl 	generatedWSAs 	0
scalar MyScenario.node[6].appl 	receivedWSAs 	0
scalar MyScenario.node[6].nic.phy80211p 	busyTime 	0
scalar MyScenario.node[6].nic.mac1609_4 	ReceivedUnicastPackets 	0
scalar MyScenario.node[6].nic.mac1609_4 	ReceivedBroadcasts 	0
scalar MyScenario.node[6].nic.mac1609_4 	SentPackets 	0
scalar MyScenario.node[6].nic.mac1609_4 	SNIRLostPackets 	0
scalar MyScenario.node[6].nic.mac1609_4 	RXTXLostPackets 	0
scalar MyScenario.node[6].nic.mac1609_4 	TotalLostPackets 	0
scalar MyScenario.node[6].nic.mac1609_4 	DroppedPacketsInMac 	0
scalar MyScenario.node[6].nic.mac1609_4 	TooLittleTime 	0
scalar MyScenario.node[6].nic.mac1609_4 	TimesIntoBackoff 	0
scalar MyScenario.node[6].nic.mac1609_4 	SlotsBackoff 	0
scalar MyScenario.node[6].nic.mac1609_4 	NumInternalContention 	0
scalar MyScenario.node[6].nic.mac1609_4 	totalBusyTime 	0
scalar MyScenario.node[6].veinsmobility 	startTime 	1
scalar MyScenario.node[6].veinsmobility 	totalTime 	25
scalar MyScenario.node[6].veinsmobility 	stopTime 	27
scalar MyScenario.node[6].veinsmobility 	minSpeed 	1.9109997015214
scalar MyScenario.node[6].veinsmobility 	maxSpeed 	13.881425920455
scalar MyScenario.node[6].veinsmobility 	totalDistance 	269.44028229307
scalar MyScenario.node[6].veinsmobility 	totalCO2Emission 	87.974853789349
scalar MyScenario.node[8].appl 	generatedWSMs 	0
scalar MyScenario.node[8].appl 	receivedWSMs 	0
scalar MyScenario.node[8].appl 	generatedBSMs 	0
scalar MyScenario.node[8].appl 	receivedBSMs 	0
scalar MyScenario.node[8].appl 	generatedWSAs 	0
scalar MyScenario.node[8].appl 	receivedWSAs 	0
scalar MyScenario.node[8].nic.phy80211p 	busyTime 	0
scalar MyScenario.node[8].nic.mac1609_4 	ReceivedUnicastPackets 	0
scalar MyScenario.node[8].nic.mac1609_4 	ReceivedBroadcasts 	0
scalar MyScenario.node[8].nic.mac1609_4 	SentPackets 	0
scalar MyScenario.node[8].nic.mac1609_4 	SNIRLostPackets 	0
scalar MyScenario.node[8].nic.mac1609_4 	RXTXLostPackets 	0
scalar MyScenario.node[8].nic.mac1609_4 	TotalLostPackets 	0
scalar MyScenario.node[8].nic.mac1609_4 	DroppedPacketsInMac 	0
scalar MyScenario.node[8].nic.mac1609_4 	TooLittleTime 	0
scalar MyScenario.node[8].nic.mac1609_4 	TimesIntoBackoff 	0
scalar MyScenario.node[8].nic.mac1609_4 	SlotsBackoff 	0
scalar MyScenario.node[8].nic.mac1609_4 	NumInternalContention 	0
scalar MyScenario.node[8].nic.mac1609_4 	totalBusyTime 	0
scalar MyScenario.node[8].veinsmobility 	startTime 	1
scalar MyScenario.node[8].veinsmobility 	totalTime 	33
scalar MyScenario.node[8].veinsmobility 	stopTime 	35
scalar MyScenario.node[8].veinsmobility 	minSpeed 	1.7644576532533
scalar MyScenario.node[8].veinsmobility 	maxSpeed 	13.856211606157
scalar MyScenario.node[8].veinsmobility 	totalDistance 	376.15778400826
scalar MyScenario.node[8].veinsmobility 	totalCO2Emission 	103.23417240266
scalar MyScenario.node[129].appl 	generatedWSMs 	1
scalar MyScenario.node[129].appl 	receivedWSMs 	1
scalar MyScenario.node[129].appl 	generatedBSMs 	0
scalar MyScenario.node[129].appl 	receivedBSMs 	0
scalar MyScenario.node[129].appl 	generatedWSAs 	0
scalar MyScenario.node[129].appl 	receivedWSAs 	0
scalar MyScenario.node[129].nic.phy80211p 	busyTime 	6.1411764705882e-05
scalar MyScenario.node[129].nic.mac1609_4 	ReceivedUnicastPackets 	0
scalar MyScenario.node[129].nic.mac1609_4 	ReceivedBroadcasts 	1
scalar MyScenario.node[129].nic.mac1609_4 	SentPackets 	1
scalar MyScenario.node[129].nic.mac1609_4 	SNIRLostPackets 	8
scalar MyScenario.node[129].nic.mac1609_4 	RXTXLostPackets 	14
scalar MyScenario.node[129].nic.mac1609_4 	TotalLostPackets 	22
scalar MyScenario.node[129].nic.mac1609_4 	DroppedPacketsInMac 	0
scalar MyScenario.node[129].nic.mac1609_4 	TooLittleTime 	0
scalar MyScenario.node[129].nic.mac1609_4 	TimesIntoBackoff 	1
scalar MyScenario.node[129].nic.mac1609_4 	SlotsBackoff 	3
scalar MyScenario.node[129].nic.mac1609_4 	NumInternalContention 	0
scalar MyScenario.node[129].nic.mac1609_4 	totalBusyTime 	0.001393016459
scalar MyScenario.node[129].veinsmobility 	startTime 	1
scalar MyScenario.node[129].veinsmobility 	totalTime 	33
scalar MyScenario.node[129].veinsmobility 	stopTime 	35
scalar MyScenario.node[129].veinsmobility 	minSpeed 	1.5379252715968
scalar MyScenario.node[129].veinsmobility 	maxSpeed 	13.876083807484
scalar MyScenario.node[129].veinsmobility 	totalDistance 	363.45898004085
scalar MyScenario.node[129].veinsmobility 	totalCO2Emission 	109.75563526734
scalar MyScenario.node[59].appl 	generatedWSMs 	0
scalar MyScenario.node[59].appl 	receivedWSMs 	0
scalar MyScenario.node[59].appl 	generatedBSMs 	0
scalar MyScenario.node[59].appl 	receivedBSMs 	0
scalar MyScenario.node[59].appl 	generatedWSAs 	0
scalar MyScenario.node[59].appl 	receivedWSAs 	0
scalar MyScenario.node[59].nic.phy80211p 	busyTime 	0
scalar MyScenario.node[59].nic.mac1609_4 	ReceivedUnicastPackets 	0
scalar MyScenario.node[59].nic.mac1609_4 	ReceivedBroadcasts 	0
scalar MyScenario.node[59].nic.mac1609_4 	SentPackets 	0
scalar MyScenario.node[59].nic.mac1609_4 	SNIRLostPackets 	0
scalar MyScenario.node[59].nic.mac1609_4 	RXTXLostPackets 	0
scalar MyScenario.node[59].nic.mac1609_4 	TotalLostPackets 	0
scalar MyScenario.node[59].nic.mac1609_4 	DroppedPacketsInMac 	0
scalar MyScenario.node[59].nic.mac1609_4 	TooLittleTime 	0
scalar MyScenario.node[59].nic.mac1609_4 	TimesIntoBackoff 	0
scalar MyScenario.node[59].nic.mac1609_4 	SlotsBackoff 	0
scalar MyScenario.node[59].nic.mac1609_4 	NumInternalContention 	0
scalar MyScenario.node[59].nic.mac1609_4 	totalBusyTime 	0
scalar MyScenario.node[59].veinsmobility 	startTime 	1
scalar MyScenario.node[59].veinsmobility 	totalTime 	34
scalar MyScenario.node[59].veinsmobility 	stopTime 	36
scalar MyScenario.node[59].veinsmobility 	minSpeed 	1.531012468203
scalar MyScenario.node[59].veinsmobility 	maxSpeed 	13.845439364552
scalar MyScenario.node[59].veinsmobility 	totalDistance 	365.80621574511
scalar MyScenario.node[59].veinsmobility 	totalCO2Emission 	122.23592822601
scalar MyScenario.node[90].appl 	generatedWSMs 	1
scalar MyScenario.node[90].appl 	receivedWSMs 	7
scalar MyScenario.node[90].appl 	generatedBSMs 	0
scalar MyScenario.node[90].appl 	receivedBSMs 	0
scalar MyScenario.node[90].appl 	generatedWSAs 	0
scalar MyScenario.node[90].appl 	receivedWSAs 	0
scalar MyScenario.node[90].nic.phy80211p 	busyTime 	0.00010311111111111
scalar MyScenario.node[90].nic.mac1609_4 	ReceivedUnicastPackets 	0
scalar MyScenario.node[90].nic.mac1609_4 	ReceivedBroadcasts 	7
scalar MyScenario.node[90].nic.mac1609_4 	SentPackets 	1
scalar MyScenario.node[90].nic.mac1609_4 	SNIRLostPackets 	9
scalar MyScenario.node[90].nic.mac1609_4 	RXTXLostPackets 	1
scalar MyScenario.node[90].nic.mac1609_4 	TotalLostPackets 	10
scalar MyScenario.node[90].nic.mac1609_4 	DroppedPacketsInMac 	0
scalar MyScenario.node[90].nic.mac1609_4 	TooLittleTime 	0
scalar MyScenario.node[90].nic.mac1609_4 	TimesIntoBackoff 	1
scalar MyScenario.node[90].nic.mac1609_4 	SlotsBackoff 	0
scalar MyScenario.node[90].nic.mac1609_4 	NumInternalContention 	0
scalar MyScenario.node[90].nic.mac1609_4 	totalBusyTime 	0.002785
scalar MyScenario.node[90].veinsmobility 	startTime 	1
scalar MyScenario.node[90].veinsmobility 	totalTime 	35
scalar MyScenario.node[90].veinsmobility 	stopTime 	37
scalar MyScenario.node[90].veinsmobility 	minSpeed 	1.7400104425615
scalar MyScenario.node[90].veinsmobility 	maxSpeed 	13.782890162221
scalar MyScenario.node[90].veinsmobility 	totalDistance 	368.95068495801
scalar MyScenario.node[90].veinsmobility 	totalCO2Emission 	116.67476091605
scalar MyScenario.node[37].appl 	generatedWSMs 	1
scalar MyScenario.node[37].appl 	receivedWSMs 	1
scalar MyScenario.node[37].appl 	generatedBSMs 	0
scalar MyScenario.node[37].appl 	receivedBSMs 	0
scalar MyScenario.node[37].appl 	generatedWSAs 	0
scalar MyScenario.node[37].appl 	receivedWSAs 	0
scalar MyScenario.node[37].nic.phy80211p 	busyTime 	8.3282051282051e-05
scalar MyScenario.node[37].nic.mac1609_4 	ReceivedUnicastPackets 	0
scalar MyScenario.node[37].nic.mac1609_4 	ReceivedBroadcasts 	1
scalar MyScenario.node[37].nic.mac1609_4 	SentPackets 	1
scalar MyScenario.node[37].nic.mac1609_4 	SNIRLostPackets 	13
scalar MyScenario.node[37].nic.mac1609_4 	RXTXLostPackets 	6
scalar MyScenario.node[37].nic.mac1609_4 	TotalLostPackets 	19
scalar MyScenario.node[37].nic.mac1609_4 	DroppedPacketsInMac 	0
scalar MyScenario.node[37].nic.mac1609_4 	TooLittleTime 	0
scalar MyScenario.node[37].nic.mac1609_4 	TimesIntoBackoff 	1
scalar MyScenario.node[37].nic.mac1609_4 	SlotsBackoff 	1
scalar MyScenario.node[37].nic.mac1609_4 	NumInternalContention 	0
scalar MyScenario.node[37].nic.mac1609_4 	totalBusyTime 	0.000929
scalar MyScenario.node[37].veinsmobility 	startTime 	1
scalar MyScenario.node[37].veinsmobility 	totalTime 	38
scalar MyScenario.node[37].veinsmobility 	stopTime 	40
scalar MyScenario.node[37].veinsmobility 	minSpeed 	0.070529517581112
scalar MyScenario.node[37].veinsmobility 	maxSpeed 	13.866177863721
scalar MyScenario.node[37].veinsmobility 	totalDistance 	380.65185927438
scalar MyScenario.node[37].veinsmobility 	totalCO2Emission 	116.39389586367
scalar MyScenario.node[0].appl 	generatedWSMs 	14
scalar MyScenario.node[0].appl 	receivedWSMs 	6
scalar MyScenario.node[0].appl 	generatedBSMs 	0
scalar MyScenario.node[0].appl 	receivedBSMs 	0
scalar MyScenario.node[0].appl 	generatedWSAs 	0
scalar MyScenario.node[0].appl 	receivedWSAs 	0
scalar MyScenario.node[0].nic.phy80211p 	busyTime 	0.0002552
scalar MyScenario.node[0].nic.mac1609_4 	ReceivedUnicastPackets 	0
scalar MyScenario.node[0].nic.mac1609_4 	ReceivedBroadcasts 	6
scalar MyScenario.node[0].nic.mac1609_4 	SentPackets 	14
scalar MyScenario.node[0].nic.mac1609_4 	SNIRLostPackets 	38
scalar MyScenario.node[0].nic.mac1609_4 	RXTXLostPackets 	0
scalar MyScenario.node[0].nic.mac1609_4 	TotalLostPackets 	38
scalar MyScenario.node[0].nic.mac1609_4 	DroppedPacketsInMac 	0
scalar MyScenario.node[0].nic.mac1609_4 	TooLittleTime 	0
scalar MyScenario.node[0].nic.mac1609_4 	TimesIntoBackoff 	14
scalar MyScenario.node[0].nic.mac1609_4 	SlotsBackoff 	22
scalar MyScenario.node[0].nic.mac1609_4 	NumInternalContention 	0
scalar MyScenario.node[0].nic.mac1609_4 	totalBusyTime 	0.00535003903
scalar MyScenario.node[0].veinsmobility 	startTime 	1
scalar MyScenario.node[0].veinsmobility 	totalTime 	39
scalar MyScenario.node[0].veinsmobility 	stopTime 	41
scalar MyScenario.node[0].veinsmobility 	minSpeed 	0.018082516586744
scalar MyScenario.node[0].veinsmobility 	maxSpeed 	13.867497064429
scalar MyScenario.node[0].veinsmobility 	totalDistance 	382.52790517875
scalar MyScenario.node[0].veinsmobility 	totalCO2Emission 	108.54600381863
scalar MyScenario.node[15].appl 	generatedWSMs 	0
scalar MyScenario.node[15].appl 	receivedWSMs 	0
scalar MyScenario.node[15].appl 	generatedBSMs 	0
scalar MyScenario.node[15].appl 	receivedBSMs 	0
scalar MyScenario.node[15].appl 	generatedWSAs 	0
scalar MyScenario.node[15].appl 	receivedWSAs 	0
scalar MyScenario.node[15].nic.phy80211p 	busyTime 	0
scalar MyScenario.node[15].nic.mac1609_4 	ReceivedUnicastPackets 	0
scalar MyScenario.node[15].nic.mac1609_4 	ReceivedBroadcasts 	0
scalar MyScenario.node[15].nic.mac1609_4 	SentPackets 	0
scalar MyScenario.node[15].nic.mac1609_4 	SNIRLostPackets 	0
scalar MyScenario.node[15].nic.mac1609_4 	RXTXLostPackets 	0
scalar MyScenario.node[15].nic.mac1609_4 	TotalLostPackets 	0
scalar MyScenario.node[15].nic.mac1609_4 	DroppedPacketsInMac 	0
scalar MyScenario.node[15].nic.mac1609_4 	TooLittleTime 	0
scalar MyScenario.node[15].nic.mac1609_4 	TimesIntoBackoff 	0
scalar MyScenario.node[15].nic.mac1609_4 	SlotsBackoff 	0
scalar MyScenario.node[15].nic.mac1609_4 	NumInternalContention 	0
scalar MyScenario.node[15].nic.mac1609_4 	totalBusyTime 	0
scalar MyScenario.node[15].veinsmobility 	startTime 	1
scalar MyScenario.node[15].veinsmobility 	totalTime 	39
scalar MyScenario.node[15].veinsmobility 	stopTime 	41
scalar MyScenario.node[15].veinsmobility 	minSpeed 	0.0038609711630626
scalar MyScenario.node[15].veinsmobility 	maxSpeed 	13.84972552564
scalar MyScenario.node[15].veinsmobility 	totalDistance 	374.40673872864
scalar MyScenario.node[15].veinsmobility 	totalCO2Emission 	134.75226071377
scalar MyScenario.node[87].appl 	generatedWSMs 	0
scalar MyScenario.node[87].appl 	receivedWSMs 	0
scalar MyScenario.node[87].appl 	generatedBSMs 	0
scalar MyScenario.node[87].appl 	receivedBSMs 	0
scalar MyScenario.node[87].appl 	generatedWSAs 	0
scalar MyScenario.node[87].appl 	receivedWSAs 	0
scalar MyScenario.node[87].nic.phy80211p 	busyTime 	0
scalar MyScenario.node[87].nic.mac1609_4 	ReceivedUnicastPackets 	0
scalar MyScenario.node[87].nic.mac1609_4 	ReceivedBroadcasts 	0
scalar MyScenario.node[87].nic.mac1609_4 	SentPackets 	0
scalar MyScenario.node[87].nic.mac1609_4 	SNIRLostPackets 	0
scalar MyScenario.node[87].nic.mac1609_4 	RXTXLostPackets 	0
scalar MyScenario.node[87].nic.mac1609_4 	TotalLostPackets 	0
scalar MyScenario.node[87].nic.mac1609_4 	DroppedPacketsInMac 	0
scalar MyScenario.node[87].nic.mac1609_4 	TooLittleTime 	0
scalar MyScenario.node[87].nic.mac1609_4 	TimesIntoBackoff 	0
scalar MyScenario.node[87].nic.mac1609_4 	SlotsBackoff 	0
scalar MyScenario.node[87].nic.mac1609_4 	NumInternalContention 	0
scalar MyScenario.node[87].nic.mac1609_4 	totalBusyTime 	0
scalar MyScenario.node[87].veinsmobility 	startTime 	1
scalar MyScenario.node[87].veinsmobility 	totalTime 	39
scalar MyScenario.node[87].veinsmobility 	stopTime 	41
scalar MyScenario.node[87].veinsmobility 	minSpeed 	2.3674352996983
scalar MyScenario.node[87].veinsmobility 	maxSpeed 	13.812579807965
scalar MyScenario.node[87].veinsmobility 	totalDistance 	477.19476766764
scalar MyScenario.node[87].veinsmobility 	totalCO2Emission 	104.03794437555
scalar MyScenario.node[172].appl 	generatedWSMs 	1
scalar MyScenario.node[172].appl 	receivedWSMs 	11
scalar MyScenario.node[172].appl 	generatedBSMs 	0
scalar MyScenario.node[172].appl 	receivedBSMs 	0
scalar MyScenario.node[172].appl 	generatedWSAs 	0
scalar MyScenario.node[172].appl 	receivedWSAs 	0
scalar MyScenario.node[172].nic.phy80211p 	busyTime 	0.00014042105263158
scalar MyScenario.node[172].nic.mac1609_4 	ReceivedUnicastPackets 	0
scalar MyScenario.node[172].nic.mac1609_4 	ReceivedBroadcasts 	11
scalar MyScenario.node[172].nic.mac1609_4 	SentPackets 	1
scalar MyScenario.node[172].nic.mac1609_4 	SNIRLostPackets 	12
scalar MyScenario.node[172].nic.mac1609_4 	RXTXLostPackets 	5
scalar MyScenario.node[172].nic.mac1609_4 	TotalLostPackets 	17
scalar MyScenario.node[172].nic.mac1609_4 	DroppedPacketsInMac 	0
scalar MyScenario.node[172].nic.mac1609_4 	TooLittleTime 	0
scalar MyScenario.node[172].nic.mac1609_4 	TimesIntoBackoff 	1
scalar MyScenario.node[172].nic.mac1609_4 	SlotsBackoff 	0
scalar MyScenario.node[172].nic.mac1609_4 	NumInternalContention 	0
scalar MyScenario.node[172].nic.mac1609_4 	totalBusyTime 	0.003945
scalar MyScenario.node[172].veinsmobility 	startTime 	4
scalar MyScenario.node[172].veinsmobility 	totalTime 	37
scalar MyScenario.node[172].veinsmobility 	stopTime 	42
scalar MyScenario.node[172].veinsmobility 	minSpeed 	2.5079615783412
scalar MyScenario.node[172].veinsmobility 	maxSpeed 	13.835111857695
scalar MyScenario.node[172].veinsmobility 	totalDistance 	379.70404464865
scalar MyScenario.node[172].veinsmobility 	totalCO2Emission 	141.91704594312
scalar MyScenario.node[84].appl 	generatedWSMs 	1
scalar MyScenario.node[84].appl 	receivedWSMs 	7
scalar MyScenario.node[84].appl 	generatedBSMs 	0
scalar MyScenario.node[84].appl 	receivedBSMs 	0
scalar MyScenario.node[84].appl 	generatedWSAs 	0
scalar MyScenario.node[84].appl 	receivedWSAs 	0
scalar MyScenario.node[84].nic.phy80211p 	busyTime 	0.00016975609756098
scalar MyScenario.node[84].nic.mac1609_4 	ReceivedUnicastPackets 	0
scalar MyScenario.node[84].nic.mac1609_4 	ReceivedBroadcasts 	7
scalar MyScenario.node[84].nic.mac1609_4 	SentPackets 	1
scalar MyScenario.node[84].nic.mac1609_4 	SNIRLostPackets 	23
scalar MyScenario.node[84].nic.mac1609_4 	RXTXLostPackets 	1
scalar MyScenario.node[84].nic.mac1609_4 	TotalLostPackets 	24
scalar MyScenario.node[84].nic.mac1609_4 	DroppedPacketsInMac 	0
scalar MyScenario.node[84].nic.mac1609_4 	TooLittleTime 	0
scalar MyScenario.node[84].nic.mac1609_4 	TimesIntoBackoff 	1
scalar MyScenario.node[84].nic.mac1609_4 	SlotsBackoff 	0
scalar MyScenario.node[84].nic.mac1609_4 	NumInternalContention 	0
scalar MyScenario.node[84].nic.mac1609_4 	totalBusyTime 	0.003017
scalar MyScenario.node[84].veinsmobility 	startTime 	1
scalar MyScenario.node[84].veinsmobility 	totalTime 	40
scalar MyScenario.node[84].veinsmobility 	stopTime 	42
scalar MyScenario.node[84].veinsmobility 	minSpeed 	2.0229630425572
scalar MyScenario.node[84].veinsmobility 	maxSpeed 	13.86969509453
scalar MyScenario.node[84].veinsmobility 	totalDistance 	463.21553356676
scalar MyScenario.node[84].veinsmobility 	totalCO2Emission 	126.71101250838
scalar MyScenario.node[22].appl 	generatedWSMs 	1
scalar MyScenario.node[22].appl 	receivedWSMs 	2
scalar MyScenario.node[22].appl 	generatedBSMs 	0
scalar MyScenario.node[22].appl 	receivedBSMs 	0
scalar MyScenario.node[22].appl 	generatedWSAs 	0
scalar MyScenario.node[22].appl 	receivedWSAs 	0
scalar MyScenario.node[22].nic.phy80211p 	busyTime 	6.2243902439024e-05
scalar MyScenario.node[22].nic.mac1609_4 	ReceivedUnicastPackets 	0
scalar MyScenario.node[22].nic.mac1609_4 	ReceivedBroadcasts 	2
scalar MyScenario.node[22].nic.mac1609_4 	SentPackets 	1
scalar MyScenario.node[22].nic.mac1609_4 	SNIRLostPackets 	9
scalar MyScenario.node[22].nic.mac1609_4 	RXTXLostPackets 	11
scalar MyScenario.node[22].nic.mac1609_4 	TotalLostPackets 	20
scalar MyScenario.node[22].nic.mac1609_4 	DroppedPacketsInMac 	0
scalar MyScenario.node[22].nic.mac1609_4 	TooLittleTime 	0
scalar MyScenario.node[22].nic.mac1609_4 	TimesIntoBackoff 	1
scalar MyScenario.node[22].nic.mac1609_4 	SlotsBackoff 	2
scalar MyScenario.node[22].nic.mac1609_4 	NumInternalContention 	0
scalar MyScenario.node[22].nic.mac1609_4 	totalBusyTime 	0.001161005268
scalar MyScenario.node[22].veinsmobility 	startTime 	1
scalar MyScenario.node[22].veinsmobility 	totalTime 	40
scalar MyScenario.node[22].veinsmobility 	stopTime 	42
scalar MyScenario.node[22].veinsmobility 	minSpeed 	1.4456712350482
scalar MyScenario.node[22].veinsmobility 	maxSpeed 	13.890971141588
scalar MyScenario.node[22].veinsmobility 	totalDistance 	470.67187229464
scalar MyScenario.node[22].veinsmobility 	totalCO2Emission 	123.29058838045
scalar MyScenario.node[70].appl 	generatedWSMs 	0
scalar MyScenario.node[70].appl 	receivedWSMs 	0
scalar MyScenario.node[70].appl 	generatedBSMs 	0
scalar MyScenario.node[70].appl 	receivedBSMs 	0
scalar MyScenario.node[70].appl 	generatedWSAs 	0
scalar MyScenario.node[70].appl 	receivedWSAs 	0
scalar MyScenario.node[70].nic.phy80211p 	busyTime 	0
scalar MyScenario.node[70].nic.mac1609_4 	ReceivedUnicastPackets 	0
scalar MyScenario.node[70].nic.mac1609_4 	ReceivedBroadcasts 	0
scalar MyScenario.node[70].nic.mac1609_4 	SentPackets 	0
scalar MyScenario.node[70].nic.mac1609_4 	SNIRLostPackets 	0
scalar MyScenario.node[70].nic.mac1609_4 	RXTXLostPackets 	0
scalar MyScenario.node[70].nic.mac1609_4 	TotalLostPackets 	0
scalar MyScenario.node[70].nic.mac1609_4 	DroppedPacketsInMac 	0
scalar MyScenario.node[70].nic.mac1609_4 	TooLittleTime 	0
scalar MyScenario.node[70].nic.mac1609_4 	TimesIntoBackoff 	0
scalar MyScenario.node[70].nic.mac1609_4 	SlotsBackoff 	0
scalar MyScenario.node[70].nic.mac1609_4 	NumInternalContention 	0
scalar MyScenario.node[70].nic.mac1609_4 	totalBusyTime 	0
scalar MyScenario.node[70].veinsmobility 	startTime 	1
scalar MyScenario.node[70].veinsmobility 	totalTime 	41
scalar MyScenario.node[70].veinsmobility 	stopTime 	43
scalar MyScenario.node[70].veinsmobility 	minSpeed 	2.539281691052
scalar MyScenario.node[70].veinsmobility 	maxSpeed 	13.840237289737
scalar MyScenario.node[70].veinsmobility 	totalDistance 	476.53779836821
scalar MyScenario.node[70].veinsmobility 	totalCO2Emission 	129.27429658829
scalar MyScenario.node[131].appl 	generatedWSMs 	0
scalar MyScenario.node[131].appl 	receivedWSMs 	0
scalar MyScenario.node[131].appl 	generatedBSMs 	0
scalar MyScenario.node[131].appl 	receivedBSMs 	0
scalar MyScenario.node[131].appl 	generatedWSAs 	0
scalar MyScenario.node[131].appl 	receivedWSAs 	0
scalar MyScenario.node[131].nic.phy80211p 	busyTime 	0.0001186976744186
scalar MyScenario.node[131].nic.mac1609_4 	ReceivedUnicastPackets 	0
scalar MyScenario.node[131].nic.mac1609_4 	ReceivedBroadcasts 	0
scalar MyScenario.node[131].nic.mac1609_4 	SentPackets 	0
scalar MyScenario.node[131].nic.mac1609_4 	SNIRLostPackets 	22
scalar MyScenario.node[131].nic.mac1609_4 	RXTXLostPackets 	0
scalar MyScenario.node[131].nic.mac1609_4 	TotalLostPackets 	22
scalar MyScenario.node[131].nic.mac1609_4 	DroppedPacketsInMac 	0
scalar MyScenario.node[131].nic.mac1609_4 	TooLittleTime 	0
scalar MyScenario.node[131].nic.mac1609_4 	TimesIntoBackoff 	0
scalar MyScenario.node[131].nic.mac1609_4 	SlotsBackoff 	0
scalar MyScenario.node[131].nic.mac1609_4 	NumInternalContention 	0
scalar MyScenario.node[131].nic.mac1609_4 	totalBusyTime 	0.002088
scalar MyScenario.node[131].veinsmobility 	startTime 	1
scalar MyScenario.node[131].veinsmobility 	totalTime 	42
scalar MyScenario.node[131].veinsmobility 	stopTime 	44
scalar MyScenario.node[131].veinsmobility 	minSpeed 	1.3330113720149
scalar MyScenario.node[131].veinsmobility 	maxSpeed 	13.88084975516
scalar MyScenario.node[131].veinsmobility 	totalDistance 	479.83694260785
scalar MyScenario.node[131].veinsmobility 	totalCO2Emission 	123.54857932333
scalar MyScenario.node[63].appl 	generatedWSMs 	0
scalar MyScenario.node[63].appl 	receivedWSMs 	0
scalar MyScenario.node[63].appl 	generatedBSMs 	0
scalar MyScenario.node[63].appl 	receivedBSMs 	0
scalar MyScenario.node[63].appl 	generatedWSAs 	0
scalar MyScenario.node[63].appl 	receivedWSAs 	0
scalar MyScenario.node[63].nic.phy80211p 	busyTime 	0
scalar MyScenario.node[63].nic.mac1609_4 	ReceivedUnicastPackets 	0
scalar MyScenario.node[63].nic.mac1609_4 	ReceivedBroadcasts 	0
scalar MyScenario.node[63].nic.mac1609_4 	SentPackets 	0
scalar MyScenario.node[63].nic.mac1609_4 	SNIRLostPackets 	0
scalar MyScenario.node[63].nic.mac1609_4 	RXTXLostPackets 	0
scalar MyScenario.node[63].nic.mac1609_4 	TotalLostPackets 	0
scalar MyScenario.node[63].nic.mac1609_4 	DroppedPacketsInMac 	0
scalar MyScenario.node[63].nic.mac1609_4 	TooLittleTime 	0
scalar MyScenario.node[63].nic.mac1609_4 	TimesIntoBackoff 	0
scalar MyScenario.node[63].nic.mac1609_4 	SlotsBackoff 	0
scalar MyScenario.node[63].nic.mac1609_4 	NumInternalContention 	0
scalar MyScenario.node[63].nic.mac1609_4 	totalBusyTime 	0
scalar MyScenario.node[63].veinsmobility 	startTime 	1
scalar MyScenario.node[63].veinsmobility 	totalTime 	42
scalar MyScenario.node[63].veinsmobility 	stopTime 	44
scalar MyScenario.node[63].veinsmobility 	minSpeed 	1.242948231692
scalar MyScenario.node[63].veinsmobility 	maxSpeed 	13.813979931641
scalar MyScenario.node[63].veinsmobility 	totalDistance 	456.61315418954
scalar MyScenario.node[63].veinsmobility 	totalCO2Emission 	125.36182057555
scalar MyScenario.node[72].appl 	generatedWSMs 	1
scalar MyScenario.node[72].appl 	receivedWSMs 	9
scalar MyScenario.node[72].appl 	generatedBSMs 	0
scalar MyScenario.node[72].appl 	receivedBSMs 	0
scalar MyScenario.node[72].appl 	generatedWSAs 	0
scalar MyScenario.node[72].appl 	receivedWSAs 	0
scalar MyScenario.node[72].nic.phy80211p 	busyTime 	0.00013488372093023
scalar MyScenario.node[72].nic.mac1609_4 	ReceivedUnicastPackets 	0
scalar MyScenario.node[72].nic.mac1609_4 	ReceivedBroadcasts 	9
scalar MyScenario.node[72].nic.mac1609_4 	SentPackets 	1
scalar MyScenario.node[72].nic.mac1609_4 	SNIRLostPackets 	16
scalar MyScenario.node[72].nic.mac1609_4 	RXTXLostPackets 	11
scalar MyScenario.node[72].nic.mac1609_4 	TotalLostPackets 	27
scalar MyScenario.node[72].nic.mac1609_4 	DroppedPacketsInMac 	0
scalar MyScenario.node[72].nic.mac1609_4 	TooLittleTime 	0
scalar MyScenario.node[72].nic.mac1609_4 	TimesIntoBackoff 	1
scalar MyScenario.node[72].nic.mac1609_4 	SlotsBackoff 	1
scalar MyScenario.node[72].nic.mac1609_4 	NumInternalContention 	0
scalar MyScenario.node[72].nic.mac1609_4 	totalBusyTime 	0.003481057142
scalar MyScenario.node[72].veinsmobility 	startTime 	1
scalar MyScenario.node[72].veinsmobility 	totalTime 	42
scalar MyScenario.node[72].veinsmobility 	stopTime 	44
scalar MyScenario.node[72].veinsmobility 	minSpeed 	2.1601487909444
scalar MyScenario.node[72].veinsmobility 	maxSpeed 	13.850485269888
scalar MyScenario.node[72].veinsmobility 	totalDistance 	457.33270144143
scalar MyScenario.node[72].veinsmobility 	totalCO2Emission 	138.92279020679
scalar MyScenario.node[54].appl 	generatedWSMs 	0
scalar MyScenario.node[54].appl 	receivedWSMs 	0
scalar MyScenario.node[54].appl 	generatedBSMs 	0
scalar MyScenario.node[54].appl 	receivedBSMs 	0
scalar MyScenario.node[54].appl 	generatedWSAs 	0
scalar MyScenario.node[54].appl 	receivedWSAs 	0
scalar MyScenario.node[54].nic.phy80211p 	busyTime 	6.4744186046512e-05
scalar MyScenario.node[54].nic.mac1609_4 	ReceivedUnicastPackets 	0
scalar MyScenario.node[54].nic.mac1609_4 	ReceivedBroadcasts 	0
scalar MyScenario.node[54].nic.mac1609_4 	SentPackets 	0
scalar MyScenario.node[54].nic.mac1609_4 	SNIRLostPackets 	12
scalar MyScenario.node[54].nic.mac1609_4 	RXTXLostPackets 	0
scalar MyScenario.node[54].nic.mac1609_4 	TotalLostPackets 	12
scalar MyScenario.node[54].nic.mac1609_4 	DroppedPacketsInMac 	0
scalar MyScenario.node[54].nic.mac1609_4 	TooLittleTime 	0
scalar MyScenario.node[54].nic.mac1609_4 	TimesIntoBackoff 	0
scalar MyScenario.node[54].nic.mac1609_4 	SlotsBackoff 	0
scalar MyScenario.node[54].nic.mac1609_4 	NumInternalContention 	0
scalar MyScenario.node[54].nic.mac1609_4 	totalBusyTime 	0.000232
scalar MyScenario.node[54].veinsmobility 	startTime 	1
scalar MyScenario.node[54].veinsmobility 	totalTime 	42
scalar MyScenario.node[54].veinsmobility 	stopTime 	44
scalar MyScenario.node[54].veinsmobility 	minSpeed 	2.5160349503625
scalar MyScenario.node[54].veinsmobility 	maxSpeed 	13.898195576272
scalar MyScenario.node[54].veinsmobility 	totalDistance 	457.98919714419
scalar MyScenario.node[54].veinsmobility 	totalCO2Emission 	137.89617667256
scalar MyScenario.node[136].appl 	generatedWSMs 	1
scalar MyScenario.node[136].appl 	receivedWSMs 	14
scalar MyScenario.node[136].appl 	generatedBSMs 	0
scalar MyScenario.node[136].appl 	receivedBSMs 	0
scalar MyScenario.node[136].appl 	generatedWSAs 	0
scalar MyScenario.node[136].appl 	receivedWSAs 	0
scalar MyScenario.node[136].nic.phy80211p 	busyTime 	0.00015646511627907
scalar MyScenario.node[136].nic.mac1609_4 	ReceivedUnicastPackets 	0
scalar MyScenario.node[136].nic.mac1609_4 	ReceivedBroadcasts 	14
scalar MyScenario.node[136].nic.mac1609_4 	SentPackets 	1
scalar MyScenario.node[136].nic.mac1609_4 	SNIRLostPackets 	15
scalar MyScenario.node[136].nic.mac1609_4 	RXTXLostPackets 	11
scalar MyScenario.node[136].nic.mac1609_4 	TotalLostPackets 	26
scalar MyScenario.node[136].nic.mac1609_4 	DroppedPacketsInMac 	0
scalar MyScenario.node[136].nic.mac1609_4 	TooLittleTime 	0
scalar MyScenario.node[136].nic.mac1609_4 	TimesIntoBackoff 	1
scalar MyScenario.node[136].nic.mac1609_4 	SlotsBackoff 	0
scalar MyScenario.node[136].nic.mac1609_4 	NumInternalContention 	0
scalar MyScenario.node[136].nic.mac1609_4 	totalBusyTime 	0.004409037084
scalar MyScenario.node[136].veinsmobility 	startTime 	1
scalar MyScenario.node[136].veinsmobility 	totalTime 	42
scalar MyScenario.node[136].veinsmobility 	stopTime 	44
scalar MyScenario.node[136].veinsmobility 	minSpeed 	1.5976530538173
scalar MyScenario.node[136].veinsmobility 	maxSpeed 	13.890172771458
scalar MyScenario.node[136].veinsmobility 	totalDistance 	475.09835773114
scalar MyScenario.node[136].veinsmobility 	totalCO2Emission 	132.8183834663
scalar MyScenario.node[52].appl 	generatedWSMs 	1
scalar MyScenario.node[52].appl 	receivedWSMs 	5
scalar MyScenario.node[52].appl 	generatedBSMs 	0
scalar MyScenario.node[52].appl 	receivedBSMs 	0
scalar MyScenario.node[52].appl 	generatedWSAs 	0
scalar MyScenario.node[52].appl 	receivedWSAs 	0
scalar MyScenario.node[52].nic.phy80211p 	busyTime 	0.00013709090909091
scalar MyScenario.node[52].nic.mac1609_4 	ReceivedUnicastPackets 	0
scalar MyScenario.node[52].nic.mac1609_4 	ReceivedBroadcasts 	5
scalar MyScenario.node[52].nic.mac1609_4 	SentPackets 	1
scalar MyScenario.node[52].nic.mac1609_4 	SNIRLostPackets 	21
scalar MyScenario.node[52].nic.mac1609_4 	RXTXLostPackets 	1
scalar MyScenario.node[52].nic.mac1609_4 	TotalLostPackets 	22
scalar MyScenario.node[52].nic.mac1609_4 	DroppedPacketsInMac 	0
scalar MyScenario.node[52].nic.mac1609_4 	TooLittleTime 	0
scalar MyScenario.node[52].nic.mac1609_4 	TimesIntoBackoff 	1
scalar MyScenario.node[52].nic.mac1609_4 	SlotsBackoff 	0
scalar MyScenario.node[52].nic.mac1609_4 	NumInternalContention 	0
scalar MyScenario.node[52].nic.mac1609_4 	totalBusyTime 	0.003017
scalar MyScenario.node[52].veinsmobility 	startTime 	1
scalar MyScenario.node[52].veinsmobility 	totalTime 	43
scalar MyScenario.node[52].veinsmobility 	stopTime 	45
scalar MyScenario.node[52].veinsmobility 	minSpeed 	0.84051747021472
scalar MyScenario.node[52].veinsmobility 	maxSpeed 	13.885932262358
scalar MyScenario.node[52].veinsmobility 	totalDistance 	473.03455661335
scalar MyScenario.node[52].veinsmobility 	totalCO2Emission 	134.67999203906
scalar MyScenario.node[200].appl 	generatedWSMs 	1
scalar MyScenario.node[200].appl 	receivedWSMs 	12
scalar MyScenario.node[200].appl 	generatedBSMs 	0
scalar MyScenario.node[200].appl 	receivedBSMs 	0
scalar MyScenario.node[200].appl 	generatedWSAs 	0
scalar MyScenario.node[200].appl 	receivedWSAs 	0
scalar MyScenario.node[200].nic.phy80211p 	busyTime 	0.00014329411764706
scalar MyScenario.node[200].nic.mac1609_4 	ReceivedUnicastPackets 	0
scalar MyScenario.node[200].nic.mac1609_4 	ReceivedBroadcasts 	12
scalar MyScenario.node[200].nic.mac1609_4 	SentPackets 	1
scalar MyScenario.node[200].nic.mac1609_4 	SNIRLostPackets 	9
scalar MyScenario.node[200].nic.mac1609_4 	RXTXLostPackets 	0
scalar MyScenario.node[200].nic.mac1609_4 	TotalLostPackets 	9
scalar MyScenario.node[200].nic.mac1609_4 	DroppedPacketsInMac 	0
scalar MyScenario.node[200].nic.mac1609_4 	TooLittleTime 	0
scalar MyScenario.node[200].nic.mac1609_4 	TimesIntoBackoff 	1
scalar MyScenario.node[200].nic.mac1609_4 	SlotsBackoff 	2
scalar MyScenario.node[200].nic.mac1609_4 	NumInternalContention 	0
scalar MyScenario.node[200].nic.mac1609_4 	totalBusyTime 	0.003945
scalar MyScenario.node[200].veinsmobility 	startTime 	11
scalar MyScenario.node[200].veinsmobility 	totalTime 	33
scalar MyScenario.node[200].veinsmobility 	stopTime 	45
scalar MyScenario.node[200].veinsmobility 	minSpeed 	2.9699454158535
scalar MyScenario.node[200].veinsmobility 	maxSpeed 	13.829663511971
scalar MyScenario.node[200].veinsmobility 	totalDistance 	363.59707778598
scalar MyScenario.node[200].veinsmobility 	totalCO2Emission 	100.90589553142
scalar MyScenario.node[26].appl 	generatedWSMs 	0
scalar MyScenario.node[26].appl 	receivedWSMs 	0
scalar MyScenario.node[26].appl 	generatedBSMs 	0
scalar MyScenario.node[26].appl 	receivedBSMs 	0
scalar MyScenario.node[26].appl 	generatedWSAs 	0
scalar MyScenario.node[26].appl 	receivedWSAs 	0
scalar MyScenario.node[26].nic.phy80211p 	busyTime 	5.2727272727273e-06
scalar MyScenario.node[26].nic.mac1609_4 	ReceivedUnicastPackets 	0
scalar MyScenario.node[26].nic.mac1609_4 	ReceivedBroadcasts 	0
scalar MyScenario.node[26].nic.mac1609_4 	SentPackets 	0
scalar MyScenario.node[26].nic.mac1609_4 	SNIRLostPackets 	1
scalar MyScenario.node[26].nic.mac1609_4 	RXTXLostPackets 	0
scalar MyScenario.node[26].nic.mac1609_4 	TotalLostPackets 	1
scalar MyScenario.node[26].nic.mac1609_4 	DroppedPacketsInMac 	0
scalar MyScenario.node[26].nic.mac1609_4 	TooLittleTime 	0
scalar MyScenario.node[26].nic.mac1609_4 	TimesIntoBackoff 	0
scalar MyScenario.node[26].nic.mac1609_4 	SlotsBackoff 	0
scalar MyScenario.node[26].nic.mac1609_4 	NumInternalContention 	0
scalar MyScenario.node[26].nic.mac1609_4 	totalBusyTime 	0.000232
scalar MyScenario.node[26].veinsmobility 	startTime 	1
scalar MyScenario.node[26].veinsmobility 	totalTime 	43
scalar MyScenario.node[26].veinsmobility 	stopTime 	45
scalar MyScenario.node[26].veinsmobility 	minSpeed 	0.9978865652256
scalar MyScenario.node[26].veinsmobility 	maxSpeed 	13.843916701851
scalar MyScenario.node[26].veinsmobility 	totalDistance 	469.14103279934
scalar MyScenario.node[26].veinsmobility 	totalCO2Emission 	127.24840135792
scalar MyScenario.node[163].appl 	generatedWSMs 	1
scalar MyScenario.node[163].appl 	receivedWSMs 	5
scalar MyScenario.node[163].appl 	generatedBSMs 	0
scalar MyScenario.node[163].appl 	receivedBSMs 	0
scalar MyScenario.node[163].appl 	generatedWSAs 	0
scalar MyScenario.node[163].appl 	receivedWSAs 	0
scalar MyScenario.node[163].nic.phy80211p 	busyTime 	5.6585365853659e-05
scalar MyScenario.node[163].nic.mac1609_4 	ReceivedUnicastPackets 	0
scalar MyScenario.node[163].nic.mac1609_4 	ReceivedBroadcasts 	5
scalar MyScenario.node[163].nic.mac1609_4 	SentPackets 	1
scalar MyScenario.node[163].nic.mac1609_4 	SNIRLostPackets 	5
scalar MyScenario.node[163].nic.mac1609_4 	RXTXLostPackets 	8
scalar MyScenario.node[163].nic.mac1609_4 	TotalLostPackets 	13
scalar MyScenario.node[163].nic.mac1609_4 	DroppedPacketsInMac 	0
scalar MyScenario.node[163].nic.mac1609_4 	TooLittleTime 	0
scalar MyScenario.node[163].nic.mac1609_4 	TimesIntoBackoff 	1
scalar MyScenario.node[163].nic.mac1609_4 	SlotsBackoff 	0
scalar MyScenario.node[163].nic.mac1609_4 	NumInternalContention 	0
scalar MyScenario.node[163].nic.mac1609_4 	totalBusyTime 	0.001857
scalar MyScenario.node[163].veinsmobility 	startTime 	4
scalar MyScenario.node[163].veinsmobility 	totalTime 	40
scalar MyScenario.node[163].veinsmobility 	stopTime 	45
scalar MyScenario.node[163].veinsmobility 	minSpeed 	2.261327324016
scalar MyScenario.node[163].veinsmobility 	maxSpeed 	13.865414843569
scalar MyScenario.node[163].veinsmobility 	totalDistance 	468.93427953718
scalar MyScenario.node[163].veinsmobility 	totalCO2Emission 	122.44602039677
scalar MyScenario.node[124].appl 	generatedWSMs 	0
scalar MyScenario.node[124].appl 	receivedWSMs 	0
scalar MyScenario.node[124].appl 	generatedBSMs 	0
scalar MyScenario.node[124].appl 	receivedBSMs 	0
scalar MyScenario.node[124].appl 	generatedWSAs 	0
scalar MyScenario.node[124].appl 	receivedWSAs 	0
scalar MyScenario.node[124].nic.phy80211p 	busyTime 	9.0782608695652e-05
scalar MyScenario.node[124].nic.mac1609_4 	ReceivedUnicastPackets 	0
scalar MyScenario.node[124].nic.mac1609_4 	ReceivedBroadcasts 	0
scalar MyScenario.node[124].nic.mac1609_4 	SentPackets 	0
scalar MyScenario.node[124].nic.mac1609_4 	SNIRLostPackets 	18
scalar MyScenario.node[124].nic.mac1609_4 	RXTXLostPackets 	0
scalar MyScenario.node[124].nic.mac1609_4 	TotalLostPackets 	18
scalar MyScenario.node[124].nic.mac1609_4 	DroppedPacketsInMac 	0
scalar MyScenario.node[124].nic.mac1609_4 	TooLittleTime 	0
scalar MyScenario.node[124].nic.mac1609_4 	TimesIntoBackoff 	0
scalar MyScenario.node[124].nic.mac1609_4 	SlotsBackoff 	0
scalar MyScenario.node[124].nic.mac1609_4 	NumInternalContention 	0
scalar MyScenario.node[124].nic.mac1609_4 	totalBusyTime 	0.002088
scalar MyScenario.node[124].veinsmobility 	startTime 	1
scalar MyScenario.node[124].veinsmobility 	totalTime 	45
scalar MyScenario.node[124].veinsmobility 	stopTime 	47
scalar MyScenario.node[124].veinsmobility 	minSpeed 	2.5261194416322
scalar MyScenario.node[124].veinsmobility 	maxSpeed 	13.886578314006
scalar MyScenario.node[124].veinsmobility 	totalDistance 	472.78568418625
scalar MyScenario.node[124].veinsmobility 	totalCO2Emission 	149.44315575528
scalar MyScenario.node[103].appl 	generatedWSMs 	0
scalar MyScenario.node[103].appl 	receivedWSMs 	0
scalar MyScenario.node[103].appl 	generatedBSMs 	0
scalar MyScenario.node[103].appl 	receivedBSMs 	0
scalar MyScenario.node[103].appl 	generatedWSAs 	0
scalar MyScenario.node[103].appl 	receivedWSAs 	0
scalar MyScenario.node[103].nic.phy80211p 	busyTime 	0
scalar MyScenario.node[103].nic.mac1609_4 	ReceivedUnicastPackets 	0
scalar MyScenario.node[103].nic.mac1609_4 	ReceivedBroadcasts 	0
scalar MyScenario.node[103].nic.mac1609_4 	SentPackets 	0
scalar MyScenario.node[103].nic.mac1609_4 	SNIRLostPackets 	0
scalar MyScenario.node[103].nic.mac1609_4 	RXTXLostPackets 	0
scalar MyScenario.node[103].nic.mac1609_4 	TotalLostPackets 	0
scalar MyScenario.node[103].nic.mac1609_4 	DroppedPacketsInMac 	0
scalar MyScenario.node[103].nic.mac1609_4 	TooLittleTime 	0
scalar MyScenario.node[103].nic.mac1609_4 	TimesIntoBackoff 	0
scalar MyScenario.node[103].nic.mac1609_4 	SlotsBackoff 	0
scalar MyScenario.node[103].nic.mac1609_4 	NumInternalContention 	0
scalar MyScenario.node[103].nic.mac1609_4 	totalBusyTime 	0
scalar MyScenario.node[103].veinsmobility 	startTime 	1
scalar MyScenario.node[103].veinsmobility 	totalTime 	45
scalar MyScenario.node[103].veinsmobility 	stopTime 	47
scalar MyScenario.node[103].veinsmobility 	minSpeed 	1.6668942095013
scalar MyScenario.node[103].veinsmobility 	maxSpeed 	13.773665798362
scalar MyScenario.node[103].veinsmobility 	totalDistance 	469.06163029798
scalar MyScenario.node[103].veinsmobility 	totalCO2Emission 	159.80885589748
scalar MyScenario.node[165].appl 	generatedWSMs 	0
scalar MyScenario.node[165].appl 	receivedWSMs 	0
scalar MyScenario.node[165].appl 	generatedBSMs 	0
scalar MyScenario.node[165].appl 	receivedBSMs 	0
scalar MyScenario.node[165].appl 	generatedWSAs 	0
scalar MyScenario.node[165].appl 	receivedWSAs 	0
scalar MyScenario.node[165].nic.phy80211p 	busyTime 	1.0311111111111e-05
scalar MyScenario.node[165].nic.mac1609_4 	ReceivedUnicastPackets 	0
scalar MyScenario.node[165].nic.mac1609_4 	ReceivedBroadcasts 	0
scalar MyScenario.node[165].nic.mac1609_4 	SentPackets 	0
scalar MyScenario.node[165].nic.mac1609_4 	SNIRLostPackets 	2
scalar MyScenario.node[165].nic.mac1609_4 	RXTXLostPackets 	0
scalar MyScenario.node[165].nic.mac1609_4 	TotalLostPackets 	2
scalar MyScenario.node[165].nic.mac1609_4 	DroppedPacketsInMac 	0
scalar MyScenario.node[165].nic.mac1609_4 	TooLittleTime 	0
scalar MyScenario.node[165].nic.mac1609_4 	TimesIntoBackoff 	0
scalar MyScenario.node[165].nic.mac1609_4 	SlotsBackoff 	0
scalar MyScenario.node[165].nic.mac1609_4 	NumInternalContention 	0
scalar MyScenario.node[165].nic.mac1609_4 	totalBusyTime 	0.000232
scalar MyScenario.node[165].veinsmobility 	startTime 	4
scalar MyScenario.node[165].veinsmobility 	totalTime 	44
scalar MyScenario.node[165].veinsmobility 	stopTime 	49
scalar MyScenario.node[165].veinsmobility 	minSpeed 	2.3516888582148
scalar MyScenario.node[165].veinsmobility 	maxSpeed 	13.89029681934
scalar MyScenario.node[165].veinsmobility 	totalDistance 	465.82631657472
scalar MyScenario.node[165].veinsmobility 	totalCO2Emission 	148.31429604728
scalar MyScenario.node[125].appl 	generatedWSMs 	1
scalar MyScenario.node[125].appl 	receivedWSMs 	2
scalar MyScenario.node[125].appl 	generatedBSMs 	0
scalar MyScenario.node[125].appl 	receivedBSMs 	0
scalar MyScenario.node[125].appl 	generatedWSAs 	0
scalar MyScenario.node[125].appl 	receivedWSAs 	0
scalar MyScenario.node[125].nic.phy80211p 	busyTime 	5.3166666666667e-05
scalar MyScenario.node[125].nic.mac1609_4 	ReceivedUnicastPackets 	0
scalar MyScenario.node[125].nic.mac1609_4 	ReceivedBroadcasts 	2
scalar MyScenario.node[125].nic.mac1609_4 	SentPackets 	1
scalar MyScenario.node[125].nic.mac1609_4 	SNIRLostPackets 	9
scalar MyScenario.node[125].nic.mac1609_4 	RXTXLostPackets 	12
scalar MyScenario.node[125].nic.mac1609_4 	TotalLostPackets 	21
scalar MyScenario.node[125].nic.mac1609_4 	DroppedPacketsInMac 	0
scalar MyScenario.node[125].nic.mac1609_4 	TooLittleTime 	0
scalar MyScenario.node[125].nic.mac1609_4 	TimesIntoBackoff 	1
scalar MyScenario.node[125].nic.mac1609_4 	SlotsBackoff 	2
scalar MyScenario.node[125].nic.mac1609_4 	NumInternalContention 	0
scalar MyScenario.node[125].nic.mac1609_4 	totalBusyTime 	0.001161123419
scalar MyScenario.node[125].veinsmobility 	startTime 	1
scalar MyScenario.node[125].veinsmobility 	totalTime 	47
scalar MyScenario.node[125].veinsmobility 	stopTime 	49
scalar MyScenario.node[125].veinsmobility 	minSpeed 	2.1172676656861
scalar MyScenario.node[125].veinsmobility 	maxSpeed 	13.871308776084
scalar MyScenario.node[125].veinsmobility 	totalDistance 	562.17556340885
scalar MyScenario.node[125].veinsmobility 	totalCO2Emission 	137.32351183449
scalar MyScenario.node[138].appl 	generatedWSMs 	1
scalar MyScenario.node[138].appl 	receivedWSMs 	3
scalar MyScenario.node[138].appl 	generatedBSMs 	0
scalar MyScenario.node[138].appl 	receivedBSMs 	0
scalar MyScenario.node[138].appl 	generatedWSAs 	0
scalar MyScenario.node[138].appl 	receivedWSAs 	0
scalar MyScenario.node[138].nic.phy80211p 	busyTime 	0.00014983333333333
scalar MyScenario.node[138].nic.mac1609_4 	ReceivedUnicastPackets 	0
scalar MyScenario.node[138].nic.mac1609_4 	ReceivedBroadcasts 	3
scalar MyScenario.node[138].nic.mac1609_4 	SentPackets 	1
scalar MyScenario.node[138].nic.mac1609_4 	SNIRLostPackets 	28
scalar MyScenario.node[138].nic.mac1609_4 	RXTXLostPackets 	0
scalar MyScenario.node[138].nic.mac1609_4 	TotalLostPackets 	28
scalar MyScenario.node[138].nic.mac1609_4 	DroppedPacketsInMac 	0
scalar MyScenario.node[138].nic.mac1609_4 	TooLittleTime 	0
scalar MyScenario.node[138].nic.mac1609_4 	TimesIntoBackoff 	1
scalar MyScenario.node[138].nic.mac1609_4 	SlotsBackoff 	0
scalar MyScenario.node[138].nic.mac1609_4 	NumInternalContention 	0
scalar MyScenario.node[138].nic.mac1609_4 	totalBusyTime 	0.002089
scalar MyScenario.node[138].veinsmobility 	startTime 	1
scalar MyScenario.node[138].veinsmobility 	totalTime 	47
scalar MyScenario.node[138].veinsmobility 	stopTime 	49
scalar MyScenario.node[138].veinsmobility 	minSpeed 	2.2347355080303
scalar MyScenario.node[138].veinsmobility 	maxSpeed 	13.776804371248
scalar MyScenario.node[138].veinsmobility 	totalDistance 	478.51908360123
scalar MyScenario.node[138].veinsmobility 	totalCO2Emission 	149.88064232137
scalar MyScenario.node[18].appl 	generatedWSMs 	1
scalar MyScenario.node[18].appl 	receivedWSMs 	6
scalar MyScenario.node[18].appl 	generatedBSMs 	0
scalar MyScenario.node[18].appl 	receivedBSMs 	0
scalar MyScenario.node[18].appl 	generatedWSAs 	0
scalar MyScenario.node[18].appl 	receivedWSAs 	0
scalar MyScenario.node[18].nic.phy80211p 	busyTime 	8.9959183673469e-05
scalar MyScenario.node[18].nic.mac1609_4 	ReceivedUnicastPackets 	0
scalar MyScenario.node[18].nic.mac1609_4 	ReceivedBroadcasts 	6
scalar MyScenario.node[18].nic.mac1609_4 	SentPackets 	1
scalar MyScenario.node[18].nic.mac1609_4 	SNIRLostPackets 	13
scalar MyScenario.node[18].nic.mac1609_4 	RXTXLostPackets 	1
scalar MyScenario.node[18].nic.mac1609_4 	TotalLostPackets 	14
scalar MyScenario.node[18].nic.mac1609_4 	DroppedPacketsInMac 	0
scalar MyScenario.node[18].nic.mac1609_4 	TooLittleTime 	0
scalar MyScenario.node[18].nic.mac1609_4 	TimesIntoBackoff 	1
scalar MyScenario.node[18].nic.mac1609_4 	SlotsBackoff 	3
scalar MyScenario.node[18].nic.mac1609_4 	NumInternalContention 	0
scalar MyScenario.node[18].nic.mac1609_4 	totalBusyTime 	0.002553
scalar MyScenario.node[18].veinsmobility 	startTime 	1
scalar MyScenario.node[18].veinsmobility 	totalTime 	48
scalar MyScenario.node[18].veinsmobility 	stopTime 	50
scalar MyScenario.node[18].veinsmobility 	minSpeed 	2.012567356159
scalar MyScenario.node[18].veinsmobility 	maxSpeed 	13.758391567692
scalar MyScenario.node[18].veinsmobility 	totalDistance 	561.4216655274
scalar MyScenario.node[18].veinsmobility 	totalCO2Emission 	149.54752511806
scalar MyScenario.node[146].appl 	generatedWSMs 	0
scalar MyScenario.node[146].appl 	receivedWSMs 	0
scalar MyScenario.node[146].appl 	generatedBSMs 	0
scalar MyScenario.node[146].appl 	receivedBSMs 	0
scalar MyScenario.node[146].appl 	generatedWSAs 	0
scalar MyScenario.node[146].appl 	receivedWSAs 	0
scalar MyScenario.node[146].nic.phy80211p 	busyTime 	0
scalar MyScenario.node[146].nic.mac1609_4 	ReceivedUnicastPackets 	0
scalar MyScenario.node[146].nic.mac1609_4 	ReceivedBroadcasts 	0
scalar MyScenario.node[146].nic.mac1609_4 	SentPackets 	0
scalar MyScenario.node[146].nic.mac1609_4 	SNIRLostPackets 	0
scalar MyScenario.node[146].nic.mac1609_4 	RXTXLostPackets 	0
scalar MyScenario.node[146].nic.mac1609_4 	TotalLostPackets 	0
scalar MyScenario.node[146].nic.mac1609_4 	DroppedPacketsInMac 	0
scalar MyScenario.node[146].nic.mac1609_4 	TooLittleTime 	0
scalar MyScenario.node[146].nic.mac1609_4 	TimesIntoBackoff 	0
scalar MyScenario.node[146].nic.mac1609_4 	SlotsBackoff 	0
scalar MyScenario.node[146].nic.mac1609_4 	NumInternalContention 	0
scalar MyScenario.node[146].nic.mac1609_4 	totalBusyTime 	0
scalar MyScenario.node[146].veinsmobility 	startTime 	1
scalar MyScenario.node[146].veinsmobility 	totalTime 	48
scalar MyScenario.node[146].veinsmobility 	stopTime 	50
scalar MyScenario.node[146].veinsmobility 	minSpeed 	2.1300000195391
scalar MyScenario.node[146].veinsmobility 	maxSpeed 	13.845044927928
scalar MyScenario.node[146].veinsmobility 	totalDistance 	571.13010826092
scalar MyScenario.node[146].veinsmobility 	totalCO2Emission 	139.0402022566
scalar MyScenario.node[180].appl 	generatedWSMs 	1
scalar MyScenario.node[180].appl 	receivedWSMs 	15
scalar MyScenario.node[180].appl 	generatedBSMs 	0
scalar MyScenario.node[180].appl 	receivedBSMs 	0
scalar MyScenario.node[180].appl 	generatedWSAs 	0
scalar MyScenario.node[180].appl 	receivedWSAs 	0
scalar MyScenario.node[180].nic.phy80211p 	busyTime 	0.00010859574468085
scalar MyScenario.node[180].nic.mac1609_4 	ReceivedUnicastPackets 	0
scalar MyScenario.node[180].nic.mac1609_4 	ReceivedBroadcasts 	15
scalar MyScenario.node[180].nic.mac1609_4 	SentPackets 	1
scalar MyScenario.node[180].nic.mac1609_4 	SNIRLostPackets 	7
scalar MyScenario.node[180].nic.mac1609_4 	RXTXLostPackets 	6
scalar MyScenario.node[180].nic.mac1609_4 	TotalLostPackets 	13
scalar MyScenario.node[180].nic.mac1609_4 	DroppedPacketsInMac 	0
scalar MyScenario.node[180].nic.mac1609_4 	TooLittleTime 	0
scalar MyScenario.node[180].nic.mac1609_4 	TimesIntoBackoff 	1
scalar MyScenario.node[180].nic.mac1609_4 	SlotsBackoff 	2
scalar MyScenario.node[180].nic.mac1609_4 	NumInternalContention 	0
scalar MyScenario.node[180].nic.mac1609_4 	totalBusyTime 	0.004641
scalar MyScenario.node[180].veinsmobility 	startTime 	4
scalar MyScenario.node[180].veinsmobility 	totalTime 	46
scalar MyScenario.node[180].veinsmobility 	stopTime 	51
scalar MyScenario.node[180].veinsmobility 	minSpeed 	2.3266326935263
scalar MyScenario.node[180].veinsmobility 	maxSpeed 	13.87773191887
scalar MyScenario.node[180].veinsmobility 	totalDistance 	565.47907083536
scalar MyScenario.node[180].veinsmobility 	totalCO2Emission 	121.78822768708
scalar MyScenario.node[7].appl 	generatedWSMs 	0
scalar MyScenario.node[7].appl 	receivedWSMs 	0
scalar MyScenario.node[7].appl 	generatedBSMs 	0
scalar MyScenario.node[7].appl 	receivedBSMs 	0
scalar MyScenario.node[7].appl 	generatedWSAs 	0
scalar MyScenario.node[7].appl 	receivedWSAs 	0
scalar MyScenario.node[7].nic.phy80211p 	busyTime 	2.784e-05
scalar MyScenario.node[7].nic.mac1609_4 	ReceivedUnicastPackets 	0
scalar MyScenario.node[7].nic.mac1609_4 	ReceivedBroadcasts 	0
scalar MyScenario.node[7].nic.mac1609_4 	SentPackets 	0
scalar MyScenario.node[7].nic.mac1609_4 	SNIRLostPackets 	6
scalar MyScenario.node[7].nic.mac1609_4 	RXTXLostPackets 	0
scalar MyScenario.node[7].nic.mac1609_4 	TotalLostPackets 	6
scalar MyScenario.node[7].nic.mac1609_4 	DroppedPacketsInMac 	0
scalar MyScenario.node[7].nic.mac1609_4 	TooLittleTime 	0
scalar MyScenario.node[7].nic.mac1609_4 	TimesIntoBackoff 	0
scalar MyScenario.node[7].nic.mac1609_4 	SlotsBackoff 	0
scalar MyScenario.node[7].nic.mac1609_4 	NumInternalContention 	0
scalar MyScenario.node[7].nic.mac1609_4 	totalBusyTime 	0.000464
scalar MyScenario.node[7].veinsmobility 	startTime 	1
scalar MyScenario.node[7].veinsmobility 	totalTime 	49
scalar MyScenario.node[7].veinsmobility 	stopTime 	51
scalar MyScenario.node[7].veinsmobility 	minSpeed 	1.3202217505313
scalar MyScenario.node[7].veinsmobility 	maxSpeed 	13.886332503473
scalar MyScenario.node[7].veinsmobility 	totalDistance 	567.67545942004
scalar MyScenario.node[7].veinsmobility 	totalCO2Emission 	147.41254151659
scalar MyScenario.node[147].appl 	generatedWSMs 	1
scalar MyScenario.node[147].appl 	receivedWSMs 	7
scalar MyScenario.node[147].appl 	generatedBSMs 	0
scalar MyScenario.node[147].appl 	receivedBSMs 	0
scalar MyScenario.node[147].appl 	generatedWSAs 	0
scalar MyScenario.node[147].appl 	receivedWSAs 	0
scalar MyScenario.node[147].nic.phy80211p 	busyTime 	0.0001392
scalar MyScenario.node[147].nic.mac1609_4 	ReceivedUnicastPackets 	0
scalar MyScenario.node[147].nic.mac1609_4 	ReceivedBroadcasts 	7
scalar MyScenario.node[147].nic.mac1609_4 	SentPackets 	1
scalar MyScenario.node[147].nic.mac1609_4 	SNIRLostPackets 	23
scalar MyScenario.node[147].nic.mac1609_4 	RXTXLostPackets 	0
scalar MyScenario.node[147].nic.mac1609_4 	TotalLostPackets 	23
scalar MyScenario.node[147].nic.mac1609_4 	DroppedPacketsInMac 	0
scalar MyScenario.node[147].nic.mac1609_4 	TooLittleTime 	0
scalar MyScenario.node[147].nic.mac1609_4 	TimesIntoBackoff 	1
scalar MyScenario.node[147].nic.mac1609_4 	SlotsBackoff 	0
scalar MyScenario.node[147].nic.mac1609_4 	NumInternalContention 	0
scalar MyScenario.node[147].nic.mac1609_4 	totalBusyTime 	0.003249
scalar MyScenario.node[147].veinsmobility 	startTime 	1
scalar MyScenario.node[147].veinsmobility 	totalTime 	49
scalar MyScenario.node[147].veinsmobility 	stopTime 	51
scalar MyScenario.node[147].veinsmobility 	minSpeed 	0.0020221169283567
scalar MyScenario.node[147].veinsmobility 	maxSpeed 	13.861962183448
scalar MyScenario.node[147].veinsmobility 	totalDistance 	469.75030389789
scalar MyScenario.node[147].veinsmobility 	totalCO2Emission 	148.64076294679
scalar MyScenario.node[108].appl 	generatedWSMs 	1
scalar MyScenario.node[108].appl 	receivedWSMs 	6
scalar MyScenario.node[108].appl 	generatedBSMs 	0
scalar MyScenario.node[108].appl 	receivedBSMs 	0
scalar MyScenario.node[108].appl 	generatedWSAs 	0
scalar MyScenario.node[108].appl 	receivedWSAs 	0
scalar MyScenario.node[108].nic.phy80211p 	busyTime 	6.96e-05
scalar MyScenario.node[108].nic.mac1609_4 	ReceivedUnicastPackets 	0
scalar MyScenario.node[108].nic.mac1609_4 	ReceivedBroadcasts 	6
scalar MyScenario.node[108].nic.mac1609_4 	SentPackets 	1
scalar MyScenario.node[108].nic.mac1609_4 	SNIRLostPackets 	9
scalar MyScenario.node[108].nic.mac1609_4 	RXTXLostPackets 	8
scalar MyScenario.node[108].nic.mac1609_4 	TotalLostPackets 	17
scalar MyScenario.node[108].nic.mac1609_4 	DroppedPacketsInMac 	0
scalar MyScenario.node[108].nic.mac1609_4 	TooLittleTime 	0
scalar MyScenario.node[108].nic.mac1609_4 	TimesIntoBackoff 	1
scalar MyScenario.node[108].nic.mac1609_4 	SlotsBackoff 	3
scalar MyScenario.node[108].nic.mac1609_4 	NumInternalContention 	0
scalar MyScenario.node[108].nic.mac1609_4 	totalBusyTime 	0.002321
scalar MyScenario.node[108].veinsmobility 	startTime 	1
scalar MyScenario.node[108].veinsmobility 	totalTime 	49
scalar MyScenario.node[108].veinsmobility 	stopTime 	51
scalar MyScenario.node[108].veinsmobility 	minSpeed 	1.7900757990545
scalar MyScenario.node[108].veinsmobility 	maxSpeed 	13.868824179005
scalar MyScenario.node[108].veinsmobility 	totalDistance 	561.61091354412
scalar MyScenario.node[108].veinsmobility 	totalCO2Emission 	152.76480274859
scalar MyScenario.node[128].appl 	generatedWSMs 	0
scalar MyScenario.node[128].appl 	receivedWSMs 	0
scalar MyScenario.node[128].appl 	generatedBSMs 	0
scalar MyScenario.node[128].appl 	receivedBSMs 	0
scalar MyScenario.node[128].appl 	generatedWSAs 	0
scalar MyScenario.node[128].appl 	receivedWSAs 	0
scalar MyScenario.node[128].nic.phy80211p 	busyTime 	0
scalar MyScenario.node[128].nic.mac1609_4 	ReceivedUnicastPackets 	0
scalar MyScenario.node[128].nic.mac1609_4 	ReceivedBroadcasts 	0
scalar MyScenario.node[128].nic.mac1609_4 	SentPackets 	0
scalar MyScenario.node[128].nic.mac1609_4 	SNIRLostPackets 	0
scalar MyScenario.node[128].nic.mac1609_4 	RXTXLostPackets 	0
scalar MyScenario.node[128].nic.mac1609_4 	TotalLostPackets 	0
scalar MyScenario.node[128].nic.mac1609_4 	DroppedPacketsInMac 	0
scalar MyScenario.node[128].nic.mac1609_4 	TooLittleTime 	0
scalar MyScenario.node[128].nic.mac1609_4 	TimesIntoBackoff 	0
scalar MyScenario.node[128].nic.mac1609_4 	SlotsBackoff 	0
scalar MyScenario.node[128].nic.mac1609_4 	NumInternalContention 	0
scalar MyScenario.node[128].nic.mac1609_4 	totalBusyTime 	0
scalar MyScenario.node[128].veinsmobility 	startTime 	1
scalar MyScenario.node[128].veinsmobility 	totalTime 	50
scalar MyScenario.node[128].veinsmobility 	stopTime 	52
scalar MyScenario.node[128].veinsmobility 	minSpeed 	2.1153769300785
scalar MyScenario.node[128].veinsmobility 	maxSpeed 	13.855778434081
scalar MyScenario.node[128].veinsmobility 	totalDistance 	564.60355100374
scalar MyScenario.node[128].veinsmobility 	totalCO2Emission 	164.37658830425
scalar MyScenario.node[36].appl 	generatedWSMs 	1
scalar MyScenario.node[36].appl 	receivedWSMs 	3
scalar MyScenario.node[36].appl 	generatedBSMs 	0
scalar MyScenario.node[36].appl 	receivedBSMs 	0
scalar MyScenario.node[36].appl 	generatedWSAs 	0
scalar MyScenario.node[36].appl 	receivedWSAs 	0
scalar MyScenario.node[36].nic.phy80211p 	busyTime 	0.000174
scalar MyScenario.node[36].nic.mac1609_4 	ReceivedUnicastPackets 	0
scalar MyScenario.node[36].nic.mac1609_4 	ReceivedBroadcasts 	3
scalar MyScenario.node[36].nic.mac1609_4 	SentPackets 	1
scalar MyScenario.node[36].nic.mac1609_4 	SNIRLostPackets 	36
scalar MyScenario.node[36].nic.mac1609_4 	RXTXLostPackets 	2
scalar MyScenario.node[36].nic.mac1609_4 	TotalLostPackets 	38
scalar MyScenario.node[36].nic.mac1609_4 	DroppedPacketsInMac 	0
scalar MyScenario.node[36].nic.mac1609_4 	TooLittleTime 	0
scalar MyScenario.node[36].nic.mac1609_4 	TimesIntoBackoff 	1
scalar MyScenario.node[36].nic.mac1609_4 	SlotsBackoff 	1
scalar MyScenario.node[36].nic.mac1609_4 	NumInternalContention 	0
scalar MyScenario.node[36].nic.mac1609_4 	totalBusyTime 	0.002089
scalar MyScenario.node[36].veinsmobility 	startTime 	1
scalar MyScenario.node[36].veinsmobility 	totalTime 	51
scalar MyScenario.node[36].veinsmobility 	stopTime 	53
scalar MyScenario.node[36].veinsmobility 	minSpeed 	2.4964340651874
scalar MyScenario.node[36].veinsmobility 	maxSpeed 	13.832600814267
scalar MyScenario.node[36].veinsmobility 	totalDistance 	565.97619602218
scalar MyScenario.node[36].veinsmobility 	totalCO2Emission 	161.28699142836
scalar MyScenario.node[189].appl 	generatedWSMs 	1
scalar MyScenario.node[189].appl 	receivedWSMs 	14
scalar MyScenario.node[189].appl 	generatedBSMs 	0
scalar MyScenario.node[189].appl 	receivedBSMs 	0
scalar MyScenario.node[189].appl 	generatedWSAs 	0
scalar MyScenario.node[189].appl 	receivedWSAs 	0
scalar MyScenario.node[189].nic.phy80211p 	busyTime 	0.00010416326530612
scalar MyScenario.node[189].nic.mac1609_4 	ReceivedUnicastPackets 	0
scalar MyScenario.node[189].nic.mac1609_4 	ReceivedBroadcasts 	14
scalar MyScenario.node[189].nic.mac1609_4 	SentPackets 	1
scalar MyScenario.node[189].nic.mac1609_4 	SNIRLostPackets 	8
scalar MyScenario.node[189].nic.mac1609_4 	RXTXLostPackets 	9
scalar MyScenario.node[189].nic.mac1609_4 	TotalLostPackets 	17
scalar MyScenario.node[189].nic.mac1609_4 	DroppedPacketsInMac 	0
scalar MyScenario.node[189].nic.mac1609_4 	TooLittleTime 	0
scalar MyScenario.node[189].nic.mac1609_4 	TimesIntoBackoff 	1
scalar MyScenario.node[189].nic.mac1609_4 	SlotsBackoff 	3
scalar MyScenario.node[189].nic.mac1609_4 	NumInternalContention 	0
scalar MyScenario.node[189].nic.mac1609_4 	totalBusyTime 	0.004409
scalar MyScenario.node[189].veinsmobility 	startTime 	4
scalar MyScenario.node[189].veinsmobility 	totalTime 	48
scalar MyScenario.node[189].veinsmobility 	stopTime 	53
scalar MyScenario.node[189].veinsmobility 	minSpeed 	2.4255897778552
scalar MyScenario.node[189].veinsmobility 	maxSpeed 	13.893830508669
scalar MyScenario.node[189].veinsmobility 	totalDistance 	570.10192737273
scalar MyScenario.node[189].veinsmobility 	totalCO2Emission 	149.83015384527
scalar MyScenario.node[132].appl 	generatedWSMs 	1
scalar MyScenario.node[132].appl 	receivedWSMs 	1
scalar MyScenario.node[132].appl 	generatedBSMs 	0
scalar MyScenario.node[132].appl 	receivedBSMs 	0
scalar MyScenario.node[132].appl 	generatedWSAs 	0
scalar MyScenario.node[132].appl 	receivedWSAs 	0
scalar MyScenario.node[132].nic.phy80211p 	busyTime 	8.7547169811321e-06
scalar MyScenario.node[132].nic.mac1609_4 	ReceivedUnicastPackets 	0
scalar MyScenario.node[132].nic.mac1609_4 	ReceivedBroadcasts 	1
scalar MyScenario.node[132].nic.mac1609_4 	SentPackets 	1
scalar MyScenario.node[132].nic.mac1609_4 	SNIRLostPackets 	1
scalar MyScenario.node[132].nic.mac1609_4 	RXTXLostPackets 	8
scalar MyScenario.node[132].nic.mac1609_4 	TotalLostPackets 	9
scalar MyScenario.node[132].nic.mac1609_4 	DroppedPacketsInMac 	0
scalar MyScenario.node[132].nic.mac1609_4 	TooLittleTime 	0
scalar MyScenario.node[132].nic.mac1609_4 	TimesIntoBackoff 	1
scalar MyScenario.node[132].nic.mac1609_4 	SlotsBackoff 	3
scalar MyScenario.node[132].nic.mac1609_4 	NumInternalContention 	0
scalar MyScenario.node[132].nic.mac1609_4 	totalBusyTime 	0.000697074897
scalar MyScenario.node[132].veinsmobility 	startTime 	1
scalar MyScenario.node[132].veinsmobility 	totalTime 	52
scalar MyScenario.node[132].veinsmobility 	stopTime 	54
scalar MyScenario.node[132].veinsmobility 	minSpeed 	3.7257291993257e-05
scalar MyScenario.node[132].veinsmobility 	maxSpeed 	13.781809804961
scalar MyScenario.node[132].veinsmobility 	totalDistance 	474.71720698767
scalar MyScenario.node[132].veinsmobility 	totalCO2Emission 	154.42415311484
scalar MyScenario.node[91].appl 	generatedWSMs 	0
scalar MyScenario.node[91].appl 	receivedWSMs 	0
scalar MyScenario.node[91].appl 	generatedBSMs 	0
scalar MyScenario.node[91].appl 	receivedBSMs 	0
scalar MyScenario.node[91].appl 	generatedWSAs 	0
scalar MyScenario.node[91].appl 	receivedWSAs 	0
scalar MyScenario.node[91].nic.phy80211p 	busyTime 	6.5660377358491e-05
scalar MyScenario.node[91].nic.mac1609_4 	ReceivedUnicastPackets 	0
scalar MyScenario.node[91].nic.mac1609_4 	ReceivedBroadcasts 	0
scalar MyScenario.node[91].nic.mac1609_4 	SentPackets 	0
scalar MyScenario.node[91].nic.mac1609_4 	SNIRLostPackets 	15
scalar MyScenario.node[91].nic.mac1609_4 	RXTXLostPackets 	0
scalar MyScenario.node[91].nic.mac1609_4 	TotalLostPackets 	15
scalar MyScenario.node[91].nic.mac1609_4 	DroppedPacketsInMac 	0
scalar MyScenario.node[91].nic.mac1609_4 	TooLittleTime 	0
scalar MyScenario.node[91].nic.mac1609_4 	TimesIntoBackoff 	0
scalar MyScenario.node[91].nic.mac1609_4 	SlotsBackoff 	0
scalar MyScenario.node[91].nic.mac1609_4 	NumInternalContention 	0
scalar MyScenario.node[91].nic.mac1609_4 	totalBusyTime 	0.000464014276
scalar MyScenario.node[91].veinsmobility 	startTime 	1
scalar MyScenario.node[91].veinsmobility 	totalTime 	52
scalar MyScenario.node[91].veinsmobility 	stopTime 	54
scalar MyScenario.node[91].veinsmobility 	minSpeed 	2.4577193551231
scalar MyScenario.node[91].veinsmobility 	maxSpeed 	13.833833551756
scalar MyScenario.node[91].veinsmobility 	totalDistance 	577.12225537509
scalar MyScenario.node[91].veinsmobility 	totalCO2Emission 	164.35738790424
scalar MyScenario.node[112].appl 	generatedWSMs 	1
scalar MyScenario.node[112].appl 	receivedWSMs 	17
scalar MyScenario.node[112].appl 	generatedBSMs 	0
scalar MyScenario.node[112].appl 	receivedBSMs 	0
scalar MyScenario.node[112].appl 	generatedWSAs 	0
scalar MyScenario.node[112].appl 	receivedWSAs 	0
scalar MyScenario.node[112].nic.phy80211p 	busyTime 	0.00014445283018868
scalar MyScenario.node[112].nic.mac1609_4 	ReceivedUnicastPackets 	0
scalar MyScenario.node[112].nic.mac1609_4 	ReceivedBroadcasts 	17
scalar MyScenario.node[112].nic.mac1609_4 	SentPackets 	1
scalar MyScenario.node[112].nic.mac1609_4 	SNIRLostPackets 	16
scalar MyScenario.node[112].nic.mac1609_4 	RXTXLostPackets 	11
scalar MyScenario.node[112].nic.mac1609_4 	TotalLostPackets 	27
scalar MyScenario.node[112].nic.mac1609_4 	DroppedPacketsInMac 	0
scalar MyScenario.node[112].nic.mac1609_4 	TooLittleTime 	0
scalar MyScenario.node[112].nic.mac1609_4 	TimesIntoBackoff 	1
scalar MyScenario.node[112].nic.mac1609_4 	SlotsBackoff 	2
scalar MyScenario.node[112].nic.mac1609_4 	NumInternalContention 	0
scalar MyScenario.node[112].nic.mac1609_4 	totalBusyTime 	0.005569171436
scalar MyScenario.node[112].veinsmobility 	startTime 	1
scalar MyScenario.node[112].veinsmobility 	totalTime 	52
scalar MyScenario.node[112].veinsmobility 	stopTime 	54
scalar MyScenario.node[112].veinsmobility 	minSpeed 	1.3964634819189
scalar MyScenario.node[112].veinsmobility 	maxSpeed 	13.8884098863
scalar MyScenario.node[112].veinsmobility 	totalDistance 	555.96997147677
scalar MyScenario.node[112].veinsmobility 	totalCO2Emission 	192.05372400229
scalar MyScenario.node[139].appl 	generatedWSMs 	1
scalar MyScenario.node[139].appl 	receivedWSMs 	8
scalar MyScenario.node[139].appl 	generatedBSMs 	0
scalar MyScenario.node[139].appl 	receivedBSMs 	0
scalar MyScenario.node[139].appl 	generatedWSAs 	0
scalar MyScenario.node[139].appl 	receivedWSAs 	0
scalar MyScenario.node[139].nic.phy80211p 	busyTime 	6.4444444444444e-05
scalar MyScenario.node[139].nic.mac1609_4 	ReceivedUnicastPackets 	0
scalar MyScenario.node[139].nic.mac1609_4 	ReceivedBroadcasts 	8
scalar MyScenario.node[139].nic.mac1609_4 	SentPackets 	1
scalar MyScenario.node[139].nic.mac1609_4 	SNIRLostPackets 	7
scalar MyScenario.node[139].nic.mac1609_4 	RXTXLostPackets 	12
scalar MyScenario.node[139].nic.mac1609_4 	TotalLostPackets 	19
scalar MyScenario.node[139].nic.mac1609_4 	DroppedPacketsInMac 	0
scalar MyScenario.node[139].nic.mac1609_4 	TooLittleTime 	0
scalar MyScenario.node[139].nic.mac1609_4 	TimesIntoBackoff 	1
scalar MyScenario.node[139].nic.mac1609_4 	SlotsBackoff 	0
scalar MyScenario.node[139].nic.mac1609_4 	NumInternalContention 	0
scalar MyScenario.node[139].nic.mac1609_4 	totalBusyTime 	0.002785076282
scalar MyScenario.node[139].veinsmobility 	startTime 	1
scalar MyScenario.node[139].veinsmobility 	totalTime 	53
scalar MyScenario.node[139].veinsmobility 	stopTime 	55
scalar MyScenario.node[139].veinsmobility 	minSpeed 	0.083267045030696
scalar MyScenario.node[139].veinsmobility 	maxSpeed 	13.875185017567
scalar MyScenario.node[139].veinsmobility 	totalDistance 	552.33426765618
scalar MyScenario.node[139].veinsmobility 	totalCO2Emission 	167.79135433335
scalar MyScenario.node[145].appl 	generatedWSMs 	1
scalar MyScenario.node[145].appl 	receivedWSMs 	13
scalar MyScenario.node[145].appl 	generatedBSMs 	0
scalar MyScenario.node[145].appl 	receivedBSMs 	0
scalar MyScenario.node[145].appl 	generatedWSAs 	0
scalar MyScenario.node[145].appl 	receivedWSAs 	0
scalar MyScenario.node[145].nic.phy80211p 	busyTime 	0.0001202962962963
scalar MyScenario.node[145].nic.mac1609_4 	ReceivedUnicastPackets 	0
scalar MyScenario.node[145].nic.mac1609_4 	ReceivedBroadcasts 	13
scalar MyScenario.node[145].nic.mac1609_4 	SentPackets 	1
scalar MyScenario.node[145].nic.mac1609_4 	SNIRLostPackets 	15
scalar MyScenario.node[145].nic.mac1609_4 	RXTXLostPackets 	9
scalar MyScenario.node[145].nic.mac1609_4 	TotalLostPackets 	24
scalar MyScenario.node[145].nic.mac1609_4 	DroppedPacketsInMac 	0
scalar MyScenario.node[145].nic.mac1609_4 	TooLittleTime 	0
scalar MyScenario.node[145].nic.mac1609_4 	TimesIntoBackoff 	1
scalar MyScenario.node[145].nic.mac1609_4 	SlotsBackoff 	1
scalar MyScenario.node[145].nic.mac1609_4 	NumInternalContention 	0
scalar MyScenario.node[145].nic.mac1609_4 	totalBusyTime 	0.004177052444
scalar MyScenario.node[145].veinsmobility 	startTime 	1
scalar MyScenario.node[145].veinsmobility 	totalTime 	53
scalar MyScenario.node[145].veinsmobility 	stopTime 	55
scalar MyScenario.node[145].veinsmobility 	minSpeed 	1.4150760739929
scalar MyScenario.node[145].veinsmobility 	maxSpeed 	13.83396683652
scalar MyScenario.node[145].veinsmobility 	totalDistance 	572.48192632102
scalar MyScenario.node[145].veinsmobility 	totalCO2Emission 	173.99381030372
scalar MyScenario.node[182].appl 	generatedWSMs 	1
scalar MyScenario.node[182].appl 	receivedWSMs 	2
scalar MyScenario.node[182].appl 	generatedBSMs 	0
scalar MyScenario.node[182].appl 	receivedBSMs 	0
scalar MyScenario.node[182].appl 	generatedWSAs 	0
scalar MyScenario.node[182].appl 	receivedWSAs 	0
scalar MyScenario.node[182].nic.phy80211p 	busyTime 	4.4615384615385e-05
scalar MyScenario.node[182].nic.mac1609_4 	ReceivedUnicastPackets 	0
scalar MyScenario.node[182].nic.mac1609_4 	ReceivedBroadcasts 	2
scalar MyScenario.node[182].nic.mac1609_4 	SentPackets 	1
scalar MyScenario.node[182].nic.mac1609_4 	SNIRLostPackets 	8
scalar MyScenario.node[182].nic.mac1609_4 	RXTXLostPackets 	13
scalar MyScenario.node[182].nic.mac1609_4 	TotalLostPackets 	21
scalar MyScenario.node[182].nic.mac1609_4 	DroppedPacketsInMac 	0
scalar MyScenario.node[182].nic.mac1609_4 	TooLittleTime 	0
scalar MyScenario.node[182].nic.mac1609_4 	TimesIntoBackoff 	1
scalar MyScenario.node[182].nic.mac1609_4 	SlotsBackoff 	2
scalar MyScenario.node[182].nic.mac1609_4 	NumInternalContention 	0
scalar MyScenario.node[182].nic.mac1609_4 	totalBusyTime 	0.001161
scalar MyScenario.node[182].veinsmobility 	startTime 	4
scalar MyScenario.node[182].veinsmobility 	totalTime 	51
scalar MyScenario.node[182].veinsmobility 	stopTime 	56
scalar MyScenario.node[182].veinsmobility 	minSpeed 	0.030122503521369
scalar MyScenario.node[182].veinsmobility 	maxSpeed 	13.743814666872
scalar MyScenario.node[182].veinsmobility 	totalDistance 	472.81618048352
scalar MyScenario.node[182].veinsmobility 	totalCO2Emission 	171.34847517752
scalar MyScenario.node[144].appl 	generatedWSMs 	1
scalar MyScenario.node[144].appl 	receivedWSMs 	3
scalar MyScenario.node[144].appl 	generatedBSMs 	0
scalar MyScenario.node[144].appl 	receivedBSMs 	0
scalar MyScenario.node[144].appl 	generatedWSAs 	0
scalar MyScenario.node[144].appl 	receivedWSAs 	0
scalar MyScenario.node[144].nic.phy80211p 	busyTime 	6.7490909090909e-05
scalar MyScenario.node[144].nic.mac1609_4 	ReceivedUnicastPackets 	0
scalar MyScenario.node[144].nic.mac1609_4 	ReceivedBroadcasts 	3
scalar MyScenario.node[144].nic.mac1609_4 	SentPackets 	1
scalar MyScenario.node[144].nic.mac1609_4 	SNIRLostPackets 	13
scalar MyScenario.node[144].nic.mac1609_4 	RXTXLostPackets 	14
scalar MyScenario.node[144].nic.mac1609_4 	TotalLostPackets 	27
scalar MyScenario.node[144].nic.mac1609_4 	DroppedPacketsInMac 	0
scalar MyScenario.node[144].nic.mac1609_4 	TooLittleTime 	0
scalar MyScenario.node[144].nic.mac1609_4 	TimesIntoBackoff 	1
scalar MyScenario.node[144].nic.mac1609_4 	SlotsBackoff 	1
scalar MyScenario.node[144].nic.mac1609_4 	NumInternalContention 	0
scalar MyScenario.node[144].nic.mac1609_4 	totalBusyTime 	0.002321014749
scalar MyScenario.node[144].veinsmobility 	startTime 	1
scalar MyScenario.node[144].veinsmobility 	totalTime 	54
scalar MyScenario.node[144].veinsmobility 	stopTime 	56
scalar MyScenario.node[144].veinsmobility 	minSpeed 	0.069767874280887
scalar MyScenario.node[144].veinsmobility 	maxSpeed 	13.847571422555
scalar MyScenario.node[144].veinsmobility 	totalDistance 	564.75466400416
scalar MyScenario.node[144].veinsmobility 	totalCO2Emission 	164.86571982484
scalar MyScenario.node[116].appl 	generatedWSMs 	1
scalar MyScenario.node[116].appl 	receivedWSMs 	4
scalar MyScenario.node[116].appl 	generatedBSMs 	0
scalar MyScenario.node[116].appl 	receivedBSMs 	0
scalar MyScenario.node[116].appl 	generatedWSAs 	0
scalar MyScenario.node[116].appl 	receivedWSAs 	0
scalar MyScenario.node[116].nic.phy80211p 	busyTime 	8.7e-05
scalar MyScenario.node[116].nic.mac1609_4 	ReceivedUnicastPackets 	0
scalar MyScenario.node[116].nic.mac1609_4 	ReceivedBroadcasts 	4
scalar MyScenario.node[116].nic.mac1609_4 	SentPackets 	1
scalar MyScenario.node[116].nic.mac1609_4 	SNIRLostPackets 	17
scalar MyScenario.node[116].nic.mac1609_4 	RXTXLostPackets 	10
scalar MyScenario.node[116].nic.mac1609_4 	TotalLostPackets 	27
scalar MyScenario.node[116].nic.mac1609_4 	DroppedPacketsInMac 	0
scalar MyScenario.node[116].nic.mac1609_4 	TooLittleTime 	0
scalar MyScenario.node[116].nic.mac1609_4 	TimesIntoBackoff 	1
scalar MyScenario.node[116].nic.mac1609_4 	SlotsBackoff 	0
scalar MyScenario.node[116].nic.mac1609_4 	NumInternalContention 	0
scalar MyScenario.node[116].nic.mac1609_4 	totalBusyTime 	0.00162505782
scalar MyScenario.node[116].veinsmobility 	startTime 	1
scalar MyScenario.node[116].veinsmobility 	totalTime 	55
scalar MyScenario.node[116].veinsmobility 	stopTime 	57
scalar MyScenario.node[116].veinsmobility 	minSpeed 	1.9844832314178
scalar MyScenario.node[116].veinsmobility 	maxSpeed 	13.879174125032
scalar MyScenario.node[116].veinsmobility 	totalDistance 	682.56157778944
scalar MyScenario.node[116].veinsmobility 	totalCO2Emission 	154.43562227732
scalar MyScenario.node[65].appl 	generatedWSMs 	1
scalar MyScenario.node[65].appl 	receivedWSMs 	1
scalar MyScenario.node[65].appl 	generatedBSMs 	0
scalar MyScenario.node[65].appl 	receivedBSMs 	0
scalar MyScenario.node[65].appl 	generatedWSAs 	0
scalar MyScenario.node[65].appl 	receivedWSAs 	0
scalar MyScenario.node[65].nic.phy80211p 	busyTime 	8.9543859649123e-05
scalar MyScenario.node[65].nic.mac1609_4 	ReceivedUnicastPackets 	0
scalar MyScenario.node[65].nic.mac1609_4 	ReceivedBroadcasts 	1
scalar MyScenario.node[65].nic.mac1609_4 	SentPackets 	1
scalar MyScenario.node[65].nic.mac1609_4 	SNIRLostPackets 	21
scalar MyScenario.node[65].nic.mac1609_4 	RXTXLostPackets 	0
scalar MyScenario.node[65].nic.mac1609_4 	TotalLostPackets 	21
scalar MyScenario.node[65].nic.mac1609_4 	DroppedPacketsInMac 	0
scalar MyScenario.node[65].nic.mac1609_4 	TooLittleTime 	0
scalar MyScenario.node[65].nic.mac1609_4 	TimesIntoBackoff 	1
scalar MyScenario.node[65].nic.mac1609_4 	SlotsBackoff 	2
scalar MyScenario.node[65].nic.mac1609_4 	NumInternalContention 	0
scalar MyScenario.node[65].nic.mac1609_4 	totalBusyTime 	0.001393
scalar MyScenario.node[65].veinsmobility 	startTime 	1
scalar MyScenario.node[65].veinsmobility 	totalTime 	56
scalar MyScenario.node[65].veinsmobility 	stopTime 	58
scalar MyScenario.node[65].veinsmobility 	minSpeed 	0.019221597915176
scalar MyScenario.node[65].veinsmobility 	maxSpeed 	13.831610813295
scalar MyScenario.node[65].veinsmobility 	totalDistance 	570.36613338934
scalar MyScenario.node[65].veinsmobility 	totalCO2Emission 	181.83101558236
scalar MyScenario.node[44].appl 	generatedWSMs 	0
scalar MyScenario.node[44].appl 	receivedWSMs 	0
scalar MyScenario.node[44].appl 	generatedBSMs 	0
scalar MyScenario.node[44].appl 	receivedBSMs 	0
scalar MyScenario.node[44].appl 	generatedWSAs 	0
scalar MyScenario.node[44].appl 	receivedWSAs 	0
scalar MyScenario.node[44].nic.phy80211p 	busyTime 	0
scalar MyScenario.node[44].nic.mac1609_4 	ReceivedUnicastPackets 	0
scalar MyScenario.node[44].nic.mac1609_4 	ReceivedBroadcasts 	0
scalar MyScenario.node[44].nic.mac1609_4 	SentPackets 	0
scalar MyScenario.node[44].nic.mac1609_4 	SNIRLostPackets 	0
[...]
scalar MyScenario.node[179].nic.mac1609_4 	TotalLostPackets 	34
scalar MyScenario.node[179].nic.mac1609_4 	DroppedPacketsInMac 	0
scalar MyScenario.node[179].nic.mac1609_4 	TooLittleTime 	0
scalar MyScenario.node[179].nic.mac1609_4 	TimesIntoBackoff 	1
scalar MyScenario.node[179].nic.mac1609_4 	SlotsBackoff 	3
scalar MyScenario.node[179].nic.mac1609_4 	NumInternalContention 	0
scalar MyScenario.node[179].nic.mac1609_4 	totalBusyTime 	0.005801
scalar MyScenario.node[179].veinsmobility 	startTime 	4
scalar MyScenario.node[179].veinsmobility 	totalTime 	129
scalar MyScenario.node[179].veinsmobility 	stopTime 	134
scalar MyScenario.node[179].veinsmobility 	minSpeed 	0.2863717266549
scalar MyScenario.node[179].veinsmobility 	maxSpeed 	13.886689326377
scalar MyScenario.node[179].veinsmobility 	totalDistance 	1366.0881014972
scalar MyScenario.node[179].veinsmobility 	totalCO2Emission 	381.25642155768
scalar MyScenario.node[29].appl 	generatedWSMs 	0
scalar MyScenario.node[29].appl 	receivedWSMs 	0
scalar MyScenario.node[29].appl 	generatedBSMs 	0
scalar MyScenario.node[29].appl 	receivedBSMs 	0
scalar MyScenario.node[29].appl 	generatedWSAs 	0
scalar MyScenario.node[29].appl 	receivedWSAs 	0
scalar MyScenario.node[29].nic.phy80211p 	busyTime 	2.0776119402985e-05
scalar MyScenario.node[29].nic.mac1609_4 	ReceivedUnicastPackets 	0
scalar MyScenario.node[29].nic.mac1609_4 	ReceivedBroadcasts 	0
scalar MyScenario.node[29].nic.mac1609_4 	SentPackets 	0
scalar MyScenario.node[29].nic.mac1609_4 	SNIRLostPackets 	12
scalar MyScenario.node[29].nic.mac1609_4 	RXTXLostPackets 	0
scalar MyScenario.node[29].nic.mac1609_4 	TotalLostPackets 	12
scalar MyScenario.node[29].nic.mac1609_4 	DroppedPacketsInMac 	0
scalar MyScenario.node[29].nic.mac1609_4 	TooLittleTime 	0
scalar MyScenario.node[29].nic.mac1609_4 	TimesIntoBackoff 	0
scalar MyScenario.node[29].nic.mac1609_4 	SlotsBackoff 	0
scalar MyScenario.node[29].nic.mac1609_4 	NumInternalContention 	0
scalar MyScenario.node[29].nic.mac1609_4 	totalBusyTime 	0.000232073902
scalar MyScenario.node[29].veinsmobility 	startTime 	1
scalar MyScenario.node[29].veinsmobility 	totalTime 	133
scalar MyScenario.node[29].veinsmobility 	stopTime 	135
scalar MyScenario.node[29].veinsmobility 	minSpeed 	5.5483977539694e-05
scalar MyScenario.node[29].veinsmobility 	maxSpeed 	13.897935226513
scalar MyScenario.node[29].veinsmobility 	totalDistance 	1478.497560183
scalar MyScenario.node[29].veinsmobility 	totalCO2Emission 	402.33109575496
scalar MyScenario.node[46].appl 	generatedWSMs 	1
scalar MyScenario.node[46].appl 	receivedWSMs 	1
scalar MyScenario.node[46].appl 	generatedBSMs 	0
scalar MyScenario.node[46].appl 	receivedBSMs 	0
scalar MyScenario.node[46].appl 	generatedWSAs 	0
scalar MyScenario.node[46].appl 	receivedWSAs 	0
scalar MyScenario.node[46].nic.phy80211p 	busyTime 	1.5582089552239e-05
scalar MyScenario.node[46].nic.mac1609_4 	ReceivedUnicastPackets 	0
scalar MyScenario.node[46].nic.mac1609_4 	ReceivedBroadcasts 	1
scalar MyScenario.node[46].nic.mac1609_4 	SentPackets 	1
scalar MyScenario.node[46].nic.mac1609_4 	SNIRLostPackets 	8
scalar MyScenario.node[46].nic.mac1609_4 	RXTXLostPackets 	9
scalar MyScenario.node[46].nic.mac1609_4 	TotalLostPackets 	17
scalar MyScenario.node[46].nic.mac1609_4 	DroppedPacketsInMac 	0
scalar MyScenario.node[46].nic.mac1609_4 	TooLittleTime 	0
scalar MyScenario.node[46].nic.mac1609_4 	TimesIntoBackoff 	1
scalar MyScenario.node[46].nic.mac1609_4 	SlotsBackoff 	3
scalar MyScenario.node[46].nic.mac1609_4 	NumInternalContention 	0
scalar MyScenario.node[46].nic.mac1609_4 	totalBusyTime 	0.000929062278
scalar MyScenario.node[46].veinsmobility 	startTime 	1
scalar MyScenario.node[46].veinsmobility 	totalTime 	133
scalar MyScenario.node[46].veinsmobility 	stopTime 	135
scalar MyScenario.node[46].veinsmobility 	minSpeed 	3.1458477813432e-06
scalar MyScenario.node[46].veinsmobility 	maxSpeed 	13.893922224594
scalar MyScenario.node[46].veinsmobility 	totalDistance 	1368.9102622857
scalar MyScenario.node[46].veinsmobility 	totalCO2Emission 	408.59974006067
scalar MyScenario.node[162].appl 	generatedWSMs 	0
scalar MyScenario.node[162].appl 	receivedWSMs 	0
scalar MyScenario.node[162].appl 	generatedBSMs 	0
scalar MyScenario.node[162].appl 	receivedBSMs 	0
scalar MyScenario.node[162].appl 	generatedWSAs 	0
scalar MyScenario.node[162].appl 	receivedWSAs 	0
scalar MyScenario.node[162].nic.phy80211p 	busyTime 	1.9187969924812e-05
scalar MyScenario.node[162].nic.mac1609_4 	ReceivedUnicastPackets 	0
scalar MyScenario.node[162].nic.mac1609_4 	ReceivedBroadcasts 	0
scalar MyScenario.node[162].nic.mac1609_4 	SentPackets 	0
scalar MyScenario.node[162].nic.mac1609_4 	SNIRLostPackets 	11
scalar MyScenario.node[162].nic.mac1609_4 	RXTXLostPackets 	0
scalar MyScenario.node[162].nic.mac1609_4 	TotalLostPackets 	11
scalar MyScenario.node[162].nic.mac1609_4 	DroppedPacketsInMac 	0
scalar MyScenario.node[162].nic.mac1609_4 	TooLittleTime 	0
scalar MyScenario.node[162].nic.mac1609_4 	TimesIntoBackoff 	0
scalar MyScenario.node[162].nic.mac1609_4 	SlotsBackoff 	0
scalar MyScenario.node[162].nic.mac1609_4 	NumInternalContention 	0
scalar MyScenario.node[162].nic.mac1609_4 	totalBusyTime 	0.000696
scalar MyScenario.node[162].veinsmobility 	startTime 	4
scalar MyScenario.node[162].veinsmobility 	totalTime 	132
scalar MyScenario.node[162].veinsmobility 	stopTime 	137
scalar MyScenario.node[162].veinsmobility 	minSpeed 	0.59535767597137
scalar MyScenario.node[162].veinsmobility 	maxSpeed 	13.881767830625
scalar MyScenario.node[162].veinsmobility 	totalDistance 	1468.2868884998
scalar MyScenario.node[162].veinsmobility 	totalCO2Emission 	411.92878495932
scalar MyScenario.node[47].appl 	generatedWSMs 	0
scalar MyScenario.node[47].appl 	receivedWSMs 	0
scalar MyScenario.node[47].appl 	generatedBSMs 	0
scalar MyScenario.node[47].appl 	receivedBSMs 	0
scalar MyScenario.node[47].appl 	generatedWSAs 	0
scalar MyScenario.node[47].appl 	receivedWSAs 	0
scalar MyScenario.node[47].nic.phy80211p 	busyTime 	3.3868613138686e-06
scalar MyScenario.node[47].nic.mac1609_4 	ReceivedUnicastPackets 	0
scalar MyScenario.node[47].nic.mac1609_4 	ReceivedBroadcasts 	0
scalar MyScenario.node[47].nic.mac1609_4 	SentPackets 	0
scalar MyScenario.node[47].nic.mac1609_4 	SNIRLostPackets 	2
scalar MyScenario.node[47].nic.mac1609_4 	RXTXLostPackets 	0
scalar MyScenario.node[47].nic.mac1609_4 	TotalLostPackets 	2
scalar MyScenario.node[47].nic.mac1609_4 	DroppedPacketsInMac 	0
scalar MyScenario.node[47].nic.mac1609_4 	TooLittleTime 	0
scalar MyScenario.node[47].nic.mac1609_4 	TimesIntoBackoff 	0
scalar MyScenario.node[47].nic.mac1609_4 	SlotsBackoff 	0
scalar MyScenario.node[47].nic.mac1609_4 	NumInternalContention 	0
scalar MyScenario.node[47].nic.mac1609_4 	totalBusyTime 	0.000232
scalar MyScenario.node[47].veinsmobility 	startTime 	1
scalar MyScenario.node[47].veinsmobility 	totalTime 	136
scalar MyScenario.node[47].veinsmobility 	stopTime 	138
scalar MyScenario.node[47].veinsmobility 	minSpeed 	0.00060808315288174
scalar MyScenario.node[47].veinsmobility 	maxSpeed 	13.895515668066
scalar MyScenario.node[47].veinsmobility 	totalDistance 	1468.7646070099
scalar MyScenario.node[47].veinsmobility 	totalCO2Emission 	433.46757825146
scalar MyScenario.node[104].appl 	generatedWSMs 	1
scalar MyScenario.node[104].appl 	receivedWSMs 	1
scalar MyScenario.node[104].appl 	generatedBSMs 	0
scalar MyScenario.node[104].appl 	receivedBSMs 	0
scalar MyScenario.node[104].appl 	generatedWSAs 	0
scalar MyScenario.node[104].appl 	receivedWSAs 	0
scalar MyScenario.node[104].nic.phy80211p 	busyTime 	2.6898550724638e-05
scalar MyScenario.node[104].nic.mac1609_4 	ReceivedUnicastPackets 	0
scalar MyScenario.node[104].nic.mac1609_4 	ReceivedBroadcasts 	1
scalar MyScenario.node[104].nic.mac1609_4 	SentPackets 	1
scalar MyScenario.node[104].nic.mac1609_4 	SNIRLostPackets 	15
scalar MyScenario.node[104].nic.mac1609_4 	RXTXLostPackets 	6
scalar MyScenario.node[104].nic.mac1609_4 	TotalLostPackets 	21
scalar MyScenario.node[104].nic.mac1609_4 	DroppedPacketsInMac 	0
scalar MyScenario.node[104].nic.mac1609_4 	TooLittleTime 	0
scalar MyScenario.node[104].nic.mac1609_4 	TimesIntoBackoff 	1
scalar MyScenario.node[104].nic.mac1609_4 	SlotsBackoff 	3
scalar MyScenario.node[104].nic.mac1609_4 	NumInternalContention 	0
scalar MyScenario.node[104].nic.mac1609_4 	totalBusyTime 	0.001161007767
scalar MyScenario.node[104].veinsmobility 	startTime 	1
scalar MyScenario.node[104].veinsmobility 	totalTime 	137
scalar MyScenario.node[104].veinsmobility 	stopTime 	139
scalar MyScenario.node[104].veinsmobility 	minSpeed 	0.011688657175353
scalar MyScenario.node[104].veinsmobility 	maxSpeed 	13.897713729041
scalar MyScenario.node[104].veinsmobility 	totalDistance 	1367.9380283321
scalar MyScenario.node[104].veinsmobility 	totalCO2Emission 	449.46871641177
scalar MyScenario.node[141].appl 	generatedWSMs 	0
scalar MyScenario.node[141].appl 	receivedWSMs 	0
scalar MyScenario.node[141].appl 	generatedBSMs 	0
scalar MyScenario.node[141].appl 	receivedBSMs 	0
scalar MyScenario.node[141].appl 	generatedWSAs 	0
scalar MyScenario.node[141].appl 	receivedWSAs 	0
scalar MyScenario.node[141].nic.phy80211p 	busyTime 	0
scalar MyScenario.node[141].nic.mac1609_4 	ReceivedUnicastPackets 	0
scalar MyScenario.node[141].nic.mac1609_4 	ReceivedBroadcasts 	0
scalar MyScenario.node[141].nic.mac1609_4 	SentPackets 	0
scalar MyScenario.node[141].nic.mac1609_4 	SNIRLostPackets 	0
scalar MyScenario.node[141].nic.mac1609_4 	RXTXLostPackets 	0
scalar MyScenario.node[141].nic.mac1609_4 	TotalLostPackets 	0
scalar MyScenario.node[141].nic.mac1609_4 	DroppedPacketsInMac 	0
scalar MyScenario.node[141].nic.mac1609_4 	TooLittleTime 	0
scalar MyScenario.node[141].nic.mac1609_4 	TimesIntoBackoff 	0
scalar MyScenario.node[141].nic.mac1609_4 	SlotsBackoff 	0
scalar MyScenario.node[141].nic.mac1609_4 	NumInternalContention 	0
scalar MyScenario.node[141].nic.mac1609_4 	totalBusyTime 	0
scalar MyScenario.node[141].veinsmobility 	startTime 	1
scalar MyScenario.node[141].veinsmobility 	totalTime 	139
scalar MyScenario.node[141].veinsmobility 	stopTime 	141
scalar MyScenario.node[141].veinsmobility 	minSpeed 	1.8838524050778
scalar MyScenario.node[141].veinsmobility 	maxSpeed 	13.861824310664
scalar MyScenario.node[141].veinsmobility 	totalDistance 	1570.1812591899
scalar MyScenario.node[141].veinsmobility 	totalCO2Emission 	442.46162389121
scalar MyScenario.node[96].appl 	generatedWSMs 	0
scalar MyScenario.node[96].appl 	receivedWSMs 	0
scalar MyScenario.node[96].appl 	generatedBSMs 	0
scalar MyScenario.node[96].appl 	receivedBSMs 	0
scalar MyScenario.node[96].appl 	generatedWSAs 	0
scalar MyScenario.node[96].appl 	receivedWSAs 	0
scalar MyScenario.node[96].nic.phy80211p 	busyTime 	2.287323943662e-05
scalar MyScenario.node[96].nic.mac1609_4 	ReceivedUnicastPackets 	0
scalar MyScenario.node[96].nic.mac1609_4 	ReceivedBroadcasts 	0
scalar MyScenario.node[96].nic.mac1609_4 	SentPackets 	0
scalar MyScenario.node[96].nic.mac1609_4 	SNIRLostPackets 	14
scalar MyScenario.node[96].nic.mac1609_4 	RXTXLostPackets 	0
scalar MyScenario.node[96].nic.mac1609_4 	TotalLostPackets 	14
scalar MyScenario.node[96].nic.mac1609_4 	DroppedPacketsInMac 	0
scalar MyScenario.node[96].nic.mac1609_4 	TooLittleTime 	0
scalar MyScenario.node[96].nic.mac1609_4 	TimesIntoBackoff 	0
scalar MyScenario.node[96].nic.mac1609_4 	SlotsBackoff 	0
scalar MyScenario.node[96].nic.mac1609_4 	NumInternalContention 	0
scalar MyScenario.node[96].nic.mac1609_4 	totalBusyTime 	0.000464
scalar MyScenario.node[96].veinsmobility 	startTime 	1
scalar MyScenario.node[96].veinsmobility 	totalTime 	141
scalar MyScenario.node[96].veinsmobility 	stopTime 	143
scalar MyScenario.node[96].veinsmobility 	minSpeed 	0
scalar MyScenario.node[96].veinsmobility 	maxSpeed 	13.853963551251
scalar MyScenario.node[96].veinsmobility 	totalDistance 	1063.513305821
scalar MyScenario.node[96].veinsmobility 	totalCO2Emission 	413.00996702208
scalar MyScenario.node[23].appl 	generatedWSMs 	0
scalar MyScenario.node[23].appl 	receivedWSMs 	0
scalar MyScenario.node[23].appl 	generatedBSMs 	0
scalar MyScenario.node[23].appl 	receivedBSMs 	0
scalar MyScenario.node[23].appl 	generatedWSAs 	0
scalar MyScenario.node[23].appl 	receivedWSAs 	0
scalar MyScenario.node[23].nic.phy80211p 	busyTime 	6.4444444444444e-06
scalar MyScenario.node[23].nic.mac1609_4 	ReceivedUnicastPackets 	0
scalar MyScenario.node[23].nic.mac1609_4 	ReceivedBroadcasts 	0
scalar MyScenario.node[23].nic.mac1609_4 	SentPackets 	0
scalar MyScenario.node[23].nic.mac1609_4 	SNIRLostPackets 	4
scalar MyScenario.node[23].nic.mac1609_4 	RXTXLostPackets 	0
scalar MyScenario.node[23].nic.mac1609_4 	TotalLostPackets 	4
scalar MyScenario.node[23].nic.mac1609_4 	DroppedPacketsInMac 	0
scalar MyScenario.node[23].nic.mac1609_4 	TooLittleTime 	0
scalar MyScenario.node[23].nic.mac1609_4 	TimesIntoBackoff 	0
scalar MyScenario.node[23].nic.mac1609_4 	SlotsBackoff 	0
scalar MyScenario.node[23].nic.mac1609_4 	NumInternalContention 	0
scalar MyScenario.node[23].nic.mac1609_4 	totalBusyTime 	0.000232
scalar MyScenario.node[23].veinsmobility 	startTime 	1
scalar MyScenario.node[23].veinsmobility 	totalTime 	143
scalar MyScenario.node[23].veinsmobility 	stopTime 	145
scalar MyScenario.node[23].veinsmobility 	minSpeed 	1.2070290695123e-07
scalar MyScenario.node[23].veinsmobility 	maxSpeed 	13.888938146457
scalar MyScenario.node[23].veinsmobility 	totalDistance 	1380.6308333974
scalar MyScenario.node[23].veinsmobility 	totalCO2Emission 	452.54627990044
scalar MyScenario.node[194].appl 	generatedWSMs 	1
scalar MyScenario.node[194].appl 	receivedWSMs 	12
scalar MyScenario.node[194].appl 	generatedBSMs 	0
scalar MyScenario.node[194].appl 	receivedBSMs 	0
scalar MyScenario.node[194].appl 	generatedWSAs 	0
scalar MyScenario.node[194].appl 	receivedWSAs 	0
scalar MyScenario.node[194].nic.phy80211p 	busyTime 	2.2095238095238e-05
scalar MyScenario.node[194].nic.mac1609_4 	ReceivedUnicastPackets 	0
scalar MyScenario.node[194].nic.mac1609_4 	ReceivedBroadcasts 	12
scalar MyScenario.node[194].nic.mac1609_4 	SentPackets 	1
scalar MyScenario.node[194].nic.mac1609_4 	SNIRLostPackets 	2
scalar MyScenario.node[194].nic.mac1609_4 	RXTXLostPackets 	1
scalar MyScenario.node[194].nic.mac1609_4 	TotalLostPackets 	3
scalar MyScenario.node[194].nic.mac1609_4 	DroppedPacketsInMac 	0
scalar MyScenario.node[194].nic.mac1609_4 	TooLittleTime 	0
scalar MyScenario.node[194].nic.mac1609_4 	TimesIntoBackoff 	1
scalar MyScenario.node[194].nic.mac1609_4 	SlotsBackoff 	2
scalar MyScenario.node[194].nic.mac1609_4 	NumInternalContention 	0
scalar MyScenario.node[194].nic.mac1609_4 	totalBusyTime 	0.003481
scalar MyScenario.node[194].veinsmobility 	startTime 	7
scalar MyScenario.node[194].veinsmobility 	totalTime 	146
scalar MyScenario.node[194].veinsmobility 	stopTime 	154
scalar MyScenario.node[194].veinsmobility 	minSpeed 	0.0001726909760757
scalar MyScenario.node[194].veinsmobility 	maxSpeed 	13.838322201418
scalar MyScenario.node[194].veinsmobility 	totalDistance 	1265.981771457
scalar MyScenario.node[194].veinsmobility 	totalCO2Emission 	432.65943301772
scalar MyScenario.node[82].appl 	generatedWSMs 	1
scalar MyScenario.node[82].appl 	receivedWSMs 	1
scalar MyScenario.node[82].appl 	generatedBSMs 	0
scalar MyScenario.node[82].appl 	receivedBSMs 	0
scalar MyScenario.node[82].appl 	generatedWSAs 	0
scalar MyScenario.node[82].appl 	receivedWSAs 	0
scalar MyScenario.node[82].nic.phy80211p 	busyTime 	2.4345679012346e-05
scalar MyScenario.node[82].nic.mac1609_4 	ReceivedUnicastPackets 	0
scalar MyScenario.node[82].nic.mac1609_4 	ReceivedBroadcasts 	1
scalar MyScenario.node[82].nic.mac1609_4 	SentPackets 	1
scalar MyScenario.node[82].nic.mac1609_4 	SNIRLostPackets 	16
scalar MyScenario.node[82].nic.mac1609_4 	RXTXLostPackets 	6
scalar MyScenario.node[82].nic.mac1609_4 	TotalLostPackets 	22
scalar MyScenario.node[82].nic.mac1609_4 	DroppedPacketsInMac 	0
scalar MyScenario.node[82].nic.mac1609_4 	TooLittleTime 	0
scalar MyScenario.node[82].nic.mac1609_4 	TimesIntoBackoff 	1
scalar MyScenario.node[82].nic.mac1609_4 	SlotsBackoff 	0
scalar MyScenario.node[82].nic.mac1609_4 	NumInternalContention 	0
scalar MyScenario.node[82].nic.mac1609_4 	totalBusyTime 	0.001161
scalar MyScenario.node[82].veinsmobility 	startTime 	1
scalar MyScenario.node[82].veinsmobility 	totalTime 	161
scalar MyScenario.node[82].veinsmobility 	stopTime 	163
scalar MyScenario.node[82].veinsmobility 	minSpeed 	0.00021078656046791
scalar MyScenario.node[82].veinsmobility 	maxSpeed 	13.892978424975
scalar MyScenario.node[82].veinsmobility 	totalDistance 	1473.3414041137
scalar MyScenario.node[82].veinsmobility 	totalCO2Emission 	483.43308713816
scalar MyScenario.node[143].appl 	generatedWSMs 	1
scalar MyScenario.node[143].appl 	receivedWSMs 	15
scalar MyScenario.node[143].appl 	generatedBSMs 	0
scalar MyScenario.node[143].appl 	receivedBSMs 	0
scalar MyScenario.node[143].appl 	generatedWSAs 	0
scalar MyScenario.node[143].appl 	receivedWSAs 	0
scalar MyScenario.node[143].nic.phy80211p 	busyTime 	4.4771929824561e-05
scalar MyScenario.node[143].nic.mac1609_4 	ReceivedUnicastPackets 	0
scalar MyScenario.node[143].nic.mac1609_4 	ReceivedBroadcasts 	15
scalar MyScenario.node[143].nic.mac1609_4 	SentPackets 	1
scalar MyScenario.node[143].nic.mac1609_4 	SNIRLostPackets 	18
scalar MyScenario.node[143].nic.mac1609_4 	RXTXLostPackets 	12
scalar MyScenario.node[143].nic.mac1609_4 	TotalLostPackets 	30
scalar MyScenario.node[143].nic.mac1609_4 	DroppedPacketsInMac 	0
scalar MyScenario.node[143].nic.mac1609_4 	TooLittleTime 	0
scalar MyScenario.node[143].nic.mac1609_4 	TimesIntoBackoff 	1
scalar MyScenario.node[143].nic.mac1609_4 	SlotsBackoff 	1
scalar MyScenario.node[143].nic.mac1609_4 	NumInternalContention 	0
scalar MyScenario.node[143].nic.mac1609_4 	totalBusyTime 	0.004873
scalar MyScenario.node[143].veinsmobility 	startTime 	1
scalar MyScenario.node[143].veinsmobility 	totalTime 	170
scalar MyScenario.node[143].veinsmobility 	stopTime 	172
scalar MyScenario.node[143].veinsmobility 	minSpeed 	2.2045775152244e-06
scalar MyScenario.node[143].veinsmobility 	maxSpeed 	13.895448400499
scalar MyScenario.node[143].veinsmobility 	totalDistance 	1570.1732125881
scalar MyScenario.node[143].veinsmobility 	totalCO2Emission 	499.70084863424
scalar MyScenario.node[156].appl 	generatedWSMs 	1
scalar MyScenario.node[156].appl 	receivedWSMs 	2
scalar MyScenario.node[156].appl 	generatedBSMs 	0
scalar MyScenario.node[156].appl 	receivedBSMs 	0
scalar MyScenario.node[156].appl 	generatedWSAs 	0
scalar MyScenario.node[156].appl 	receivedWSAs 	0
scalar MyScenario.node[156].nic.phy80211p 	busyTime 	1.8454545454545e-05
scalar MyScenario.node[156].nic.mac1609_4 	ReceivedUnicastPackets 	0
scalar MyScenario.node[156].nic.mac1609_4 	ReceivedBroadcasts 	2
scalar MyScenario.node[156].nic.mac1609_4 	SentPackets 	1
scalar MyScenario.node[156].nic.mac1609_4 	SNIRLostPackets 	12
scalar MyScenario.node[156].nic.mac1609_4 	RXTXLostPackets 	11
scalar MyScenario.node[156].nic.mac1609_4 	TotalLostPackets 	23
scalar MyScenario.node[156].nic.mac1609_4 	DroppedPacketsInMac 	0
scalar MyScenario.node[156].nic.mac1609_4 	TooLittleTime 	0
scalar MyScenario.node[156].nic.mac1609_4 	TimesIntoBackoff 	1
scalar MyScenario.node[156].nic.mac1609_4 	SlotsBackoff 	1
scalar MyScenario.node[156].nic.mac1609_4 	NumInternalContention 	0
scalar MyScenario.node[156].nic.mac1609_4 	totalBusyTime 	0.001625079408
scalar MyScenario.node[156].veinsmobility 	startTime 	4
scalar MyScenario.node[156].veinsmobility 	totalTime 	175
scalar MyScenario.node[156].veinsmobility 	stopTime 	180
scalar MyScenario.node[156].veinsmobility 	minSpeed 	1.9446819622244e-07
scalar MyScenario.node[156].veinsmobility 	maxSpeed 	13.894339020783
scalar MyScenario.node[156].veinsmobility 	totalDistance 	1565.7296815286
scalar MyScenario.node[156].veinsmobility 	totalCO2Emission 	500.87907399524
