version 2
run General-13-20170829-17:39:23-8100
attr configname General
attr datetime 20170829-17:39:23
attr density 200
attr experiment General
attr inifile omnetpp.ini
attr iterationvars $density=200
attr iterationvars2 "$density=200, $repetition=3"
attr measurement $density=200
attr network com.liborio.pi.MyScenario
attr processid 8100
attr repetition 3
attr replication #3
attr resultdir results
attr runnumber 13
attr seedset 3
param **.coreDebug false
param **.debug false
param *.**.nic.mac1609_4.bitrate 6Mbps
param *.**.nic.mac1609_4.txPower 20mW
param *.**.nic.mac1609_4.useServiceChannel true
param *.**.nic.phy80211p.analogueModels "xmldoc(\"config.xml\")"
param *.**.nic.phy80211p.antenna "xmldoc(\"antenna.xml\", \"/root/Antenna[@id='monopole']\")"
param *.**.nic.phy80211p.decider "xmldoc(\"config.xml\")"
param *.**.nic.phy80211p.sensitivity -84.39dBm
param *.**.nic.phy80211p.thermalNoise -110dBm
param *.**.nic.phy80211p.usePropagationDelay true
param *.**.nic.phy80211p.useThermalNoise true
param *.annotations.draw true
param *.connectionManager.drawMaxIntfDist false
param *.connectionManager.maxInterfDist 2600m
param *.connectionManager.sendDirect true
param *.manager.autoShutdown true
param *.manager.host "\"localhost\""
param *.manager.launchConfig "xmldoc(string(${density = 100, 200, 300, 400})+\"_\"+ string(${repetition})+\".launchd.xml\")"
param *.manager.port 9999
param *.manager.updateInterval 1s
param *.node[*].appl.beaconInterval 1s
param *.node[*].appl.dataOnSch true
param *.node[*].appl.headerLength "80 bit"
param *.node[*].appl.isSource false
param *.node[*].appl.numMsgs 100
param *.node[*].appl.sendBeacons false
param *.node[*].appl.stopTrafficTime 130s
param *.node[*].appl.wsmInterval 3s
param *.node[*].applType "\"Flooding\""
param *.node[*].veinsmobility.x 0
param *.node[*].veinsmobility.y 0
param *.node[*].veinsmobility.z 1.895
param *.node[*].veinsmobilityType.debug true
param *.node[0].appl.isSource true
param *.playgroundSizeX 2500m
param *.playgroundSizeY 2500m
param *.playgroundSizeZ 50m

scalar . 	density 	200
scalar MyScenario.node[23].appl 	generatedWSMs 	0
scalar MyScenario.node[23].appl 	receivedWSMs 	0
scalar MyScenario.node[23].appl 	generatedBSMs 	0
scalar MyScenario.node[23].appl 	receivedBSMs 	0
scalar MyScenario.node[23].appl 	generatedWSAs 	0
scalar MyScenario.node[23].appl 	receivedWSAs 	0
scalar MyScenario.node[23].nic.phy80211p 	busyTime 	6.96e-05
scalar MyScenario.node[23].nic.mac1609_4 	ReceivedUnicastPackets 	0
scalar MyScenario.node[23].nic.mac1609_4 	ReceivedBroadcasts 	0
scalar MyScenario.node[23].nic.mac1609_4 	SentPackets 	0
scalar MyScenario.node[23].nic.mac1609_4 	SNIRLostPackets 	3
scalar MyScenario.node[23].nic.mac1609_4 	RXTXLostPackets 	0
scalar MyScenario.node[23].nic.mac1609_4 	TotalLostPackets 	3
scalar MyScenario.node[23].nic.mac1609_4 	DroppedPacketsInMac 	0
scalar MyScenario.node[23].nic.mac1609_4 	TooLittleTime 	0
scalar MyScenario.node[23].nic.mac1609_4 	TimesIntoBackoff 	0
scalar MyScenario.node[23].nic.mac1609_4 	SlotsBackoff 	0
scalar MyScenario.node[23].nic.mac1609_4 	NumInternalContention 	0
scalar MyScenario.node[23].nic.mac1609_4 	totalBusyTime 	0.000464
scalar MyScenario.node[23].veinsmobility 	startTime 	1
scalar MyScenario.node[23].veinsmobility 	totalTime 	9
scalar MyScenario.node[23].veinsmobility 	stopTime 	11
scalar MyScenario.node[23].veinsmobility 	minSpeed 	1.3791614833986
scalar MyScenario.node[23].veinsmobility 	maxSpeed 	13.668555439683
scalar MyScenario.node[23].veinsmobility 	totalDistance 	75.747594230599
scalar MyScenario.node[23].veinsmobility 	totalCO2Emission 	37.534713394434
scalar MyScenario.node[45].appl 	generatedWSMs 	0
scalar MyScenario.node[45].appl 	receivedWSMs 	0
scalar MyScenario.node[45].appl 	generatedBSMs 	0
scalar MyScenario.node[45].appl 	receivedBSMs 	0
scalar MyScenario.node[45].appl 	generatedWSAs 	0
scalar MyScenario.node[45].appl 	receivedWSAs 	0
scalar MyScenario.node[45].nic.phy80211p 	busyTime 	0
scalar MyScenario.node[45].nic.mac1609_4 	ReceivedUnicastPackets 	0
scalar MyScenario.node[45].nic.mac1609_4 	ReceivedBroadcasts 	0
scalar MyScenario.node[45].nic.mac1609_4 	SentPackets 	0
scalar MyScenario.node[45].nic.mac1609_4 	SNIRLostPackets 	0
scalar MyScenario.node[45].nic.mac1609_4 	RXTXLostPackets 	0
scalar MyScenario.node[45].nic.mac1609_4 	TotalLostPackets 	0
scalar MyScenario.node[45].nic.mac1609_4 	DroppedPacketsInMac 	0
scalar MyScenario.node[45].nic.mac1609_4 	TooLittleTime 	0
scalar MyScenario.node[45].nic.mac1609_4 	TimesIntoBackoff 	0
scalar MyScenario.node[45].nic.mac1609_4 	SlotsBackoff 	0
scalar MyScenario.node[45].nic.mac1609_4 	NumInternalContention 	0
scalar MyScenario.node[45].nic.mac1609_4 	totalBusyTime 	0
scalar MyScenario.node[45].veinsmobility 	startTime 	1
scalar MyScenario.node[45].veinsmobility 	totalTime 	9
scalar MyScenario.node[45].veinsmobility 	stopTime 	11
scalar MyScenario.node[45].veinsmobility 	minSpeed 	1.7812222988112
scalar MyScenario.node[45].veinsmobility 	maxSpeed 	13.134601568803
scalar MyScenario.node[45].veinsmobility 	totalDistance 	81.182081143465
scalar MyScenario.node[45].veinsmobility 	totalCO2Emission 	36.80152925387
scalar MyScenario.node[102].appl 	generatedWSMs 	0
scalar MyScenario.node[102].appl 	receivedWSMs 	0
scalar MyScenario.node[102].appl 	generatedBSMs 	0
scalar MyScenario.node[102].appl 	receivedBSMs 	0
scalar MyScenario.node[102].appl 	generatedWSAs 	0
scalar MyScenario.node[102].appl 	receivedWSAs 	0
scalar MyScenario.node[102].nic.phy80211p 	busyTime 	2.32e-05
scalar MyScenario.node[102].nic.mac1609_4 	ReceivedUnicastPackets 	0
scalar MyScenario.node[102].nic.mac1609_4 	ReceivedBroadcasts 	0
scalar MyScenario.node[102].nic.mac1609_4 	SentPackets 	0
scalar MyScenario.node[102].nic.mac1609_4 	SNIRLostPackets 	1
scalar MyScenario.node[102].nic.mac1609_4 	RXTXLostPackets 	0
scalar MyScenario.node[102].nic.mac1609_4 	TotalLostPackets 	1
scalar MyScenario.node[102].nic.mac1609_4 	DroppedPacketsInMac 	0
scalar MyScenario.node[102].nic.mac1609_4 	TooLittleTime 	0
scalar MyScenario.node[102].nic.mac1609_4 	TimesIntoBackoff 	0
scalar MyScenario.node[102].nic.mac1609_4 	SlotsBackoff 	0
scalar MyScenario.node[102].nic.mac1609_4 	NumInternalContention 	0
scalar MyScenario.node[102].nic.mac1609_4 	totalBusyTime 	0.000232
scalar MyScenario.node[102].veinsmobility 	startTime 	1
scalar MyScenario.node[102].veinsmobility 	totalTime 	9
scalar MyScenario.node[102].veinsmobility 	stopTime 	11
scalar MyScenario.node[102].veinsmobility 	minSpeed 	2.4843945978442
scalar MyScenario.node[102].veinsmobility 	maxSpeed 	13.162860763562
scalar MyScenario.node[102].veinsmobility 	totalDistance 	87.148147493045
scalar MyScenario.node[102].veinsmobility 	totalCO2Emission 	36.89292766654
scalar MyScenario.node[28].appl 	generatedWSMs 	0
scalar MyScenario.node[28].appl 	receivedWSMs 	0
scalar MyScenario.node[28].appl 	generatedBSMs 	0
scalar MyScenario.node[28].appl 	receivedBSMs 	0
scalar MyScenario.node[28].appl 	generatedWSAs 	0
scalar MyScenario.node[28].appl 	receivedWSAs 	0
scalar MyScenario.node[28].nic.phy80211p 	busyTime 	0
scalar MyScenario.node[28].nic.mac1609_4 	ReceivedUnicastPackets 	0
scalar MyScenario.node[28].nic.mac1609_4 	ReceivedBroadcasts 	0
scalar MyScenario.node[28].nic.mac1609_4 	SentPackets 	0
scalar MyScenario.node[28].nic.mac1609_4 	SNIRLostPackets 	0
scalar MyScenario.node[28].nic.mac1609_4 	RXTXLostPackets 	0
scalar MyScenario.node[28].nic.mac1609_4 	TotalLostPackets 	0
scalar MyScenario.node[28].nic.mac1609_4 	DroppedPacketsInMac 	0
scalar MyScenario.node[28].nic.mac1609_4 	TooLittleTime 	0
scalar MyScenario.node[28].nic.mac1609_4 	TimesIntoBackoff 	0
scalar MyScenario.node[28].nic.mac1609_4 	SlotsBackoff 	0
scalar MyScenario.node[28].nic.mac1609_4 	NumInternalContention 	0
scalar MyScenario.node[28].nic.mac1609_4 	totalBusyTime 	0
scalar MyScenario.node[28].veinsmobility 	startTime 	1
scalar MyScenario.node[28].veinsmobility 	totalTime 	10
scalar MyScenario.node[28].veinsmobility 	stopTime 	12
scalar MyScenario.node[28].veinsmobility 	minSpeed 	1.3962071708171
scalar MyScenario.node[28].veinsmobility 	maxSpeed 	13.292858982715
scalar MyScenario.node[28].veinsmobility 	totalDistance 	88.214130272413
scalar MyScenario.node[28].veinsmobility 	totalCO2Emission 	38.090241791804
scalar MyScenario.node[163].appl 	generatedWSMs 	0
scalar MyScenario.node[163].appl 	receivedWSMs 	0
scalar MyScenario.node[163].appl 	generatedBSMs 	0
scalar MyScenario.node[163].appl 	receivedBSMs 	0
scalar MyScenario.node[163].appl 	generatedWSAs 	0
scalar MyScenario.node[163].appl 	receivedWSAs 	0
scalar MyScenario.node[163].nic.phy80211p 	busyTime 	4.64e-05
scalar MyScenario.node[163].nic.mac1609_4 	ReceivedUnicastPackets 	0
scalar MyScenario.node[163].nic.mac1609_4 	ReceivedBroadcasts 	0
scalar MyScenario.node[163].nic.mac1609_4 	SentPackets 	0
scalar MyScenario.node[163].nic.mac1609_4 	SNIRLostPackets 	2
scalar MyScenario.node[163].nic.mac1609_4 	RXTXLostPackets 	0
scalar MyScenario.node[163].nic.mac1609_4 	TotalLostPackets 	2
scalar MyScenario.node[163].nic.mac1609_4 	DroppedPacketsInMac 	0
scalar MyScenario.node[163].nic.mac1609_4 	TooLittleTime 	0
scalar MyScenario.node[163].nic.mac1609_4 	TimesIntoBackoff 	0
scalar MyScenario.node[163].nic.mac1609_4 	SlotsBackoff 	0
scalar MyScenario.node[163].nic.mac1609_4 	NumInternalContention 	0
scalar MyScenario.node[163].nic.mac1609_4 	totalBusyTime 	0.000232
scalar MyScenario.node[163].veinsmobility 	startTime 	4
scalar MyScenario.node[163].veinsmobility 	totalTime 	9
scalar MyScenario.node[163].veinsmobility 	stopTime 	14
scalar MyScenario.node[163].veinsmobility 	minSpeed 	2.5714564054506
scalar MyScenario.node[163].veinsmobility 	maxSpeed 	13.721533445804
scalar MyScenario.node[163].veinsmobility 	totalDistance 	86.596207421087
scalar MyScenario.node[163].veinsmobility 	totalCO2Emission 	37.554901659088
scalar MyScenario.node[39].appl 	generatedWSMs 	1
scalar MyScenario.node[39].appl 	receivedWSMs 	1
scalar MyScenario.node[39].appl 	generatedBSMs 	0
scalar MyScenario.node[39].appl 	receivedBSMs 	0
scalar MyScenario.node[39].appl 	generatedWSAs 	0
scalar MyScenario.node[39].appl 	receivedWSAs 	0
scalar MyScenario.node[39].nic.phy80211p 	busyTime 	1.2888888888889e-05
scalar MyScenario.node[39].nic.mac1609_4 	ReceivedUnicastPackets 	0
scalar MyScenario.node[39].nic.mac1609_4 	ReceivedBroadcasts 	1
scalar MyScenario.node[39].nic.mac1609_4 	SentPackets 	1
scalar MyScenario.node[39].nic.mac1609_4 	SNIRLostPackets 	0
scalar MyScenario.node[39].nic.mac1609_4 	RXTXLostPackets 	3
scalar MyScenario.node[39].nic.mac1609_4 	TotalLostPackets 	3
scalar MyScenario.node[39].nic.mac1609_4 	DroppedPacketsInMac 	0
scalar MyScenario.node[39].nic.mac1609_4 	TooLittleTime 	0
scalar MyScenario.node[39].nic.mac1609_4 	TimesIntoBackoff 	1
scalar MyScenario.node[39].nic.mac1609_4 	SlotsBackoff 	0
scalar MyScenario.node[39].nic.mac1609_4 	NumInternalContention 	0
scalar MyScenario.node[39].nic.mac1609_4 	totalBusyTime 	0.000465
scalar MyScenario.node[39].veinsmobility 	startTime 	1
scalar MyScenario.node[39].veinsmobility 	totalTime 	17
scalar MyScenario.node[39].veinsmobility 	stopTime 	19
scalar MyScenario.node[39].veinsmobility 	minSpeed 	1.8082447982393
scalar MyScenario.node[39].veinsmobility 	maxSpeed 	13.835963470419
scalar MyScenario.node[39].veinsmobility 	totalDistance 	184.57001994079
scalar MyScenario.node[39].veinsmobility 	totalCO2Emission 	56.870634844643
scalar MyScenario.node[130].appl 	generatedWSMs 	1
scalar MyScenario.node[130].appl 	receivedWSMs 	8
scalar MyScenario.node[130].appl 	generatedBSMs 	0
scalar MyScenario.node[130].appl 	receivedBSMs 	0
scalar MyScenario.node[130].appl 	generatedWSAs 	0
scalar MyScenario.node[130].appl 	receivedWSAs 	0
scalar MyScenario.node[130].nic.phy80211p 	busyTime 	0.0001767619047619
scalar MyScenario.node[130].nic.mac1609_4 	ReceivedUnicastPackets 	0
scalar MyScenario.node[130].nic.mac1609_4 	ReceivedBroadcasts 	8
scalar MyScenario.node[130].nic.mac1609_4 	SentPackets 	1
scalar MyScenario.node[130].nic.mac1609_4 	SNIRLostPackets 	8
scalar MyScenario.node[130].nic.mac1609_4 	RXTXLostPackets 	12
scalar MyScenario.node[130].nic.mac1609_4 	TotalLostPackets 	20
scalar MyScenario.node[130].nic.mac1609_4 	DroppedPacketsInMac 	0
scalar MyScenario.node[130].nic.mac1609_4 	TooLittleTime 	0
scalar MyScenario.node[130].nic.mac1609_4 	TimesIntoBackoff 	1
scalar MyScenario.node[130].nic.mac1609_4 	SlotsBackoff 	3
scalar MyScenario.node[130].nic.mac1609_4 	NumInternalContention 	0
scalar MyScenario.node[130].nic.mac1609_4 	totalBusyTime 	0.002785087206
scalar MyScenario.node[130].veinsmobility 	startTime 	1
scalar MyScenario.node[130].veinsmobility 	totalTime 	20
scalar MyScenario.node[130].veinsmobility 	stopTime 	22
scalar MyScenario.node[130].veinsmobility 	minSpeed 	1.9869300337741
scalar MyScenario.node[130].veinsmobility 	maxSpeed 	13.167931160843
scalar MyScenario.node[130].veinsmobility 	totalDistance 	178.33948660906
scalar MyScenario.node[130].veinsmobility 	totalCO2Emission 	73.67271589868
scalar MyScenario.node[126].appl 	generatedWSMs 	0
scalar MyScenario.node[126].appl 	receivedWSMs 	0
scalar MyScenario.node[126].appl 	generatedBSMs 	0
scalar MyScenario.node[126].appl 	receivedBSMs 	0
scalar MyScenario.node[126].appl 	generatedWSAs 	0
scalar MyScenario.node[126].appl 	receivedWSAs 	0
scalar MyScenario.node[126].nic.phy80211p 	busyTime 	0
scalar MyScenario.node[126].nic.mac1609_4 	ReceivedUnicastPackets 	0
scalar MyScenario.node[126].nic.mac1609_4 	ReceivedBroadcasts 	0
scalar MyScenario.node[126].nic.mac1609_4 	SentPackets 	0
scalar MyScenario.node[126].nic.mac1609_4 	SNIRLostPackets 	0
scalar MyScenario.node[126].nic.mac1609_4 	RXTXLostPackets 	0
scalar MyScenario.node[126].nic.mac1609_4 	TotalLostPackets 	0
scalar MyScenario.node[126].nic.mac1609_4 	DroppedPacketsInMac 	0
scalar MyScenario.node[126].nic.mac1609_4 	TooLittleTime 	0
scalar MyScenario.node[126].nic.mac1609_4 	TimesIntoBackoff 	0
scalar MyScenario.node[126].nic.mac1609_4 	SlotsBackoff 	0
scalar MyScenario.node[126].nic.mac1609_4 	NumInternalContention 	0
scalar MyScenario.node[126].nic.mac1609_4 	totalBusyTime 	0
scalar MyScenario.node[126].veinsmobility 	startTime 	1
scalar MyScenario.node[126].veinsmobility 	totalTime 	21
scalar MyScenario.node[126].veinsmobility 	stopTime 	23
scalar MyScenario.node[126].veinsmobility 	minSpeed 	0.61455842839639
scalar MyScenario.node[126].veinsmobility 	maxSpeed 	13.717007862544
scalar MyScenario.node[126].veinsmobility 	totalDistance 	187.01979337796
scalar MyScenario.node[126].veinsmobility 	totalCO2Emission 	80.827677123385
scalar MyScenario.node[65].appl 	generatedWSMs 	1
scalar MyScenario.node[65].appl 	receivedWSMs 	17
scalar MyScenario.node[65].appl 	generatedBSMs 	0
scalar MyScenario.node[65].appl 	receivedBSMs 	0
scalar MyScenario.node[65].appl 	generatedWSAs 	0
scalar MyScenario.node[65].appl 	receivedWSAs 	0
scalar MyScenario.node[65].nic.phy80211p 	busyTime 	0.00031351351351351
scalar MyScenario.node[65].nic.mac1609_4 	ReceivedUnicastPackets 	0
scalar MyScenario.node[65].nic.mac1609_4 	ReceivedBroadcasts 	17
scalar MyScenario.node[65].nic.mac1609_4 	SentPackets 	1
scalar MyScenario.node[65].nic.mac1609_4 	SNIRLostPackets 	33
scalar MyScenario.node[65].nic.mac1609_4 	RXTXLostPackets 	12
scalar MyScenario.node[65].nic.mac1609_4 	TotalLostPackets 	45
scalar MyScenario.node[65].nic.mac1609_4 	DroppedPacketsInMac 	0
scalar MyScenario.node[65].nic.mac1609_4 	TooLittleTime 	0
scalar MyScenario.node[65].nic.mac1609_4 	TimesIntoBackoff 	1
scalar MyScenario.node[65].nic.mac1609_4 	SlotsBackoff 	3
scalar MyScenario.node[65].nic.mac1609_4 	NumInternalContention 	0
scalar MyScenario.node[65].nic.mac1609_4 	totalBusyTime 	0.006265
scalar MyScenario.node[65].veinsmobility 	startTime 	1
scalar MyScenario.node[65].veinsmobility 	totalTime 	36
scalar MyScenario.node[65].veinsmobility 	stopTime 	38
scalar MyScenario.node[65].veinsmobility 	minSpeed 	1.6613763009897
scalar MyScenario.node[65].veinsmobility 	maxSpeed 	13.874444972328
scalar MyScenario.node[65].veinsmobility 	totalDistance 	373.30932691158
scalar MyScenario.node[65].veinsmobility 	totalCO2Emission 	120.08083171087
scalar MyScenario.node[171].appl 	generatedWSMs 	1
scalar MyScenario.node[171].appl 	receivedWSMs 	9
scalar MyScenario.node[171].appl 	generatedBSMs 	0
scalar MyScenario.node[171].appl 	receivedBSMs 	0
scalar MyScenario.node[171].appl 	generatedWSAs 	0
scalar MyScenario.node[171].appl 	receivedWSAs 	0
scalar MyScenario.node[171].nic.phy80211p 	busyTime 	0.00017234285714286
scalar MyScenario.node[171].nic.mac1609_4 	ReceivedUnicastPackets 	0
scalar MyScenario.node[171].nic.mac1609_4 	ReceivedBroadcasts 	9
scalar MyScenario.node[171].nic.mac1609_4 	SentPackets 	1
scalar MyScenario.node[171].nic.mac1609_4 	SNIRLostPackets 	17
scalar MyScenario.node[171].nic.mac1609_4 	RXTXLostPackets 	3
scalar MyScenario.node[171].nic.mac1609_4 	TotalLostPackets 	20
scalar MyScenario.node[171].nic.mac1609_4 	DroppedPacketsInMac 	0
scalar MyScenario.node[171].nic.mac1609_4 	TooLittleTime 	0
scalar MyScenario.node[171].nic.mac1609_4 	TimesIntoBackoff 	1
scalar MyScenario.node[171].nic.mac1609_4 	SlotsBackoff 	1
scalar MyScenario.node[171].nic.mac1609_4 	NumInternalContention 	0
scalar MyScenario.node[171].nic.mac1609_4 	totalBusyTime 	0.003481000074
scalar MyScenario.node[171].veinsmobility 	startTime 	4
scalar MyScenario.node[171].veinsmobility 	totalTime 	34
scalar MyScenario.node[171].veinsmobility 	stopTime 	39
scalar MyScenario.node[171].veinsmobility 	minSpeed 	1.3577983217547
scalar MyScenario.node[171].veinsmobility 	maxSpeed 	13.785274574091
scalar MyScenario.node[171].veinsmobility 	totalDistance 	379.12215612451
scalar MyScenario.node[171].veinsmobility 	totalCO2Emission 	112.53697356067
scalar MyScenario.node[146].appl 	generatedWSMs 	0
scalar MyScenario.node[146].appl 	receivedWSMs 	0
scalar MyScenario.node[146].appl 	generatedBSMs 	0
scalar MyScenario.node[146].appl 	receivedBSMs 	0
scalar MyScenario.node[146].appl 	generatedWSAs 	0
scalar MyScenario.node[146].appl 	receivedWSAs 	0
scalar MyScenario.node[146].nic.phy80211p 	busyTime 	1.9885714285714e-05
scalar MyScenario.node[146].nic.mac1609_4 	ReceivedUnicastPackets 	0
scalar MyScenario.node[146].nic.mac1609_4 	ReceivedBroadcasts 	0
scalar MyScenario.node[146].nic.mac1609_4 	SentPackets 	0
scalar MyScenario.node[146].nic.mac1609_4 	SNIRLostPackets 	3
scalar MyScenario.node[146].nic.mac1609_4 	RXTXLostPackets 	0
scalar MyScenario.node[146].nic.mac1609_4 	TotalLostPackets 	3
scalar MyScenario.node[146].nic.mac1609_4 	DroppedPacketsInMac 	0
scalar MyScenario.node[146].nic.mac1609_4 	TooLittleTime 	0
scalar MyScenario.node[146].nic.mac1609_4 	TimesIntoBackoff 	0
scalar MyScenario.node[146].nic.mac1609_4 	SlotsBackoff 	0
scalar MyScenario.node[146].nic.mac1609_4 	NumInternalContention 	0
scalar MyScenario.node[146].nic.mac1609_4 	totalBusyTime 	0.000232
scalar MyScenario.node[146].veinsmobility 	startTime 	4
scalar MyScenario.node[146].veinsmobility 	totalTime 	34
scalar MyScenario.node[146].veinsmobility 	stopTime 	39
scalar MyScenario.node[146].veinsmobility 	minSpeed 	0.23081794049373
scalar MyScenario.node[146].veinsmobility 	maxSpeed 	13.877430664049
scalar MyScenario.node[146].veinsmobility 	totalDistance 	282.52939020596
scalar MyScenario.node[146].veinsmobility 	totalCO2Emission 	120.89697523248
scalar MyScenario.node[35].appl 	generatedWSMs 	1
scalar MyScenario.node[35].appl 	receivedWSMs 	7
scalar MyScenario.node[35].appl 	generatedBSMs 	0
scalar MyScenario.node[35].appl 	receivedBSMs 	0
scalar MyScenario.node[35].appl 	generatedWSAs 	0
scalar MyScenario.node[35].appl 	receivedWSAs 	0
scalar MyScenario.node[35].nic.phy80211p 	busyTime 	0.000116
scalar MyScenario.node[35].nic.mac1609_4 	ReceivedUnicastPackets 	0
scalar MyScenario.node[35].nic.mac1609_4 	ReceivedBroadcasts 	7
scalar MyScenario.node[35].nic.mac1609_4 	SentPackets 	1
scalar MyScenario.node[35].nic.mac1609_4 	SNIRLostPackets 	12
scalar MyScenario.node[35].nic.mac1609_4 	RXTXLostPackets 	6
scalar MyScenario.node[35].nic.mac1609_4 	TotalLostPackets 	18
scalar MyScenario.node[35].nic.mac1609_4 	DroppedPacketsInMac 	0
scalar MyScenario.node[35].nic.mac1609_4 	TooLittleTime 	0
scalar MyScenario.node[35].nic.mac1609_4 	TimesIntoBackoff 	1
scalar MyScenario.node[35].nic.mac1609_4 	SlotsBackoff 	2
scalar MyScenario.node[35].nic.mac1609_4 	NumInternalContention 	0
scalar MyScenario.node[35].nic.mac1609_4 	totalBusyTime 	0.003249084878
scalar MyScenario.node[35].veinsmobility 	startTime 	1
scalar MyScenario.node[35].veinsmobility 	totalTime 	37
scalar MyScenario.node[35].veinsmobility 	stopTime 	39
scalar MyScenario.node[35].veinsmobility 	minSpeed 	2.1481444226578
scalar MyScenario.node[35].veinsmobility 	maxSpeed 	13.785963019682
scalar MyScenario.node[35].veinsmobility 	totalDistance 	372.11092907177
scalar MyScenario.node[35].veinsmobility 	totalCO2Emission 	139.88657266884
scalar MyScenario.node[24].appl 	generatedWSMs 	1
scalar MyScenario.node[24].appl 	receivedWSMs 	5
scalar MyScenario.node[24].appl 	generatedBSMs 	0
scalar MyScenario.node[24].appl 	receivedBSMs 	0
scalar MyScenario.node[24].appl 	generatedWSAs 	0
scalar MyScenario.node[24].appl 	receivedWSAs 	0
scalar MyScenario.node[24].nic.phy80211p 	busyTime 	0.00021415384615385
scalar MyScenario.node[24].nic.mac1609_4 	ReceivedUnicastPackets 	0
scalar MyScenario.node[24].nic.mac1609_4 	ReceivedBroadcasts 	5
scalar MyScenario.node[24].nic.mac1609_4 	SentPackets 	1
scalar MyScenario.node[24].nic.mac1609_4 	SNIRLostPackets 	31
scalar MyScenario.node[24].nic.mac1609_4 	RXTXLostPackets 	2
scalar MyScenario.node[24].nic.mac1609_4 	TotalLostPackets 	33
scalar MyScenario.node[24].nic.mac1609_4 	DroppedPacketsInMac 	0
scalar MyScenario.node[24].nic.mac1609_4 	TooLittleTime 	0
scalar MyScenario.node[24].nic.mac1609_4 	TimesIntoBackoff 	1
scalar MyScenario.node[24].nic.mac1609_4 	SlotsBackoff 	3
scalar MyScenario.node[24].nic.mac1609_4 	NumInternalContention 	0
scalar MyScenario.node[24].nic.mac1609_4 	totalBusyTime 	0.002785
scalar MyScenario.node[24].veinsmobility 	startTime 	1
scalar MyScenario.node[24].veinsmobility 	totalTime 	38
scalar MyScenario.node[24].veinsmobility 	stopTime 	40
scalar MyScenario.node[24].veinsmobility 	minSpeed 	2.5239337675273
scalar MyScenario.node[24].veinsmobility 	maxSpeed 	13.899809855619
scalar MyScenario.node[24].veinsmobility 	totalDistance 	468.83662622891
scalar MyScenario.node[24].veinsmobility 	totalCO2Emission 	107.17066442155
scalar MyScenario.node[125].appl 	generatedWSMs 	1
scalar MyScenario.node[125].appl 	receivedWSMs 	9
scalar MyScenario.node[125].appl 	generatedBSMs 	0
scalar MyScenario.node[125].appl 	receivedBSMs 	0
scalar MyScenario.node[125].appl 	generatedWSAs 	0
scalar MyScenario.node[125].appl 	receivedWSAs 	0
scalar MyScenario.node[125].nic.phy80211p 	busyTime 	0.000203
scalar MyScenario.node[125].nic.mac1609_4 	ReceivedUnicastPackets 	0
scalar MyScenario.node[125].nic.mac1609_4 	ReceivedBroadcasts 	9
scalar MyScenario.node[125].nic.mac1609_4 	SentPackets 	1
scalar MyScenario.node[125].nic.mac1609_4 	SNIRLostPackets 	26
scalar MyScenario.node[125].nic.mac1609_4 	RXTXLostPackets 	1
scalar MyScenario.node[125].nic.mac1609_4 	TotalLostPackets 	27
scalar MyScenario.node[125].nic.mac1609_4 	DroppedPacketsInMac 	0
scalar MyScenario.node[125].nic.mac1609_4 	TooLittleTime 	0
scalar MyScenario.node[125].nic.mac1609_4 	TimesIntoBackoff 	1
scalar MyScenario.node[125].nic.mac1609_4 	SlotsBackoff 	1
scalar MyScenario.node[125].nic.mac1609_4 	NumInternalContention 	0
scalar MyScenario.node[125].nic.mac1609_4 	totalBusyTime 	0.004873
scalar MyScenario.node[125].veinsmobility 	startTime 	1
scalar MyScenario.node[125].veinsmobility 	totalTime 	39
scalar MyScenario.node[125].veinsmobility 	stopTime 	41
scalar MyScenario.node[125].veinsmobility 	minSpeed 	0.081109428853388
scalar MyScenario.node[125].veinsmobility 	maxSpeed 	13.887747419113
scalar MyScenario.node[125].veinsmobility 	totalDistance 	364.15029586311
scalar MyScenario.node[125].veinsmobility 	totalCO2Emission 	137.97994054514
scalar MyScenario.node[161].appl 	generatedWSMs 	0
scalar MyScenario.node[161].appl 	receivedWSMs 	0
scalar MyScenario.node[161].appl 	generatedBSMs 	0
scalar MyScenario.node[161].appl 	receivedBSMs 	0
scalar MyScenario.node[161].appl 	generatedWSAs 	0
scalar MyScenario.node[161].appl 	receivedWSAs 	0
scalar MyScenario.node[161].nic.phy80211p 	busyTime 	0
scalar MyScenario.node[161].nic.mac1609_4 	ReceivedUnicastPackets 	0
scalar MyScenario.node[161].nic.mac1609_4 	ReceivedBroadcasts 	0
scalar MyScenario.node[161].nic.mac1609_4 	SentPackets 	0
scalar MyScenario.node[161].nic.mac1609_4 	SNIRLostPackets 	0
scalar MyScenario.node[161].nic.mac1609_4 	RXTXLostPackets 	0
scalar MyScenario.node[161].nic.mac1609_4 	TotalLostPackets 	0
scalar MyScenario.node[161].nic.mac1609_4 	DroppedPacketsInMac 	0
scalar MyScenario.node[161].nic.mac1609_4 	TooLittleTime 	0
scalar MyScenario.node[161].nic.mac1609_4 	TimesIntoBackoff 	0
scalar MyScenario.node[161].nic.mac1609_4 	SlotsBackoff 	0
scalar MyScenario.node[161].nic.mac1609_4 	NumInternalContention 	0
scalar MyScenario.node[161].nic.mac1609_4 	totalBusyTime 	0
scalar MyScenario.node[161].veinsmobility 	startTime 	4
scalar MyScenario.node[161].veinsmobility 	totalTime 	36
scalar MyScenario.node[161].veinsmobility 	stopTime 	41
scalar MyScenario.node[161].veinsmobility 	minSpeed 	1.6426279916661
scalar MyScenario.node[161].veinsmobility 	maxSpeed 	13.890042957524
scalar MyScenario.node[161].veinsmobility 	totalDistance 	376.72237179752
scalar MyScenario.node[161].veinsmobility 	totalCO2Emission 	110.90860298933
scalar MyScenario.node[95].appl 	generatedWSMs 	1
scalar MyScenario.node[95].appl 	receivedWSMs 	2
scalar MyScenario.node[95].appl 	generatedBSMs 	0
scalar MyScenario.node[95].appl 	receivedBSMs 	0
scalar MyScenario.node[95].appl 	generatedWSAs 	0
scalar MyScenario.node[95].appl 	receivedWSAs 	0
scalar MyScenario.node[95].nic.phy80211p 	busyTime 	0.00022068292682927
scalar MyScenario.node[95].nic.mac1609_4 	ReceivedUnicastPackets 	0
scalar MyScenario.node[95].nic.mac1609_4 	ReceivedBroadcasts 	2
scalar MyScenario.node[95].nic.mac1609_4 	SentPackets 	1
scalar MyScenario.node[95].nic.mac1609_4 	SNIRLostPackets 	37
scalar MyScenario.node[95].nic.mac1609_4 	RXTXLostPackets 	5
scalar MyScenario.node[95].nic.mac1609_4 	TotalLostPackets 	42
scalar MyScenario.node[95].nic.mac1609_4 	DroppedPacketsInMac 	0
scalar MyScenario.node[95].nic.mac1609_4 	TooLittleTime 	0
scalar MyScenario.node[95].nic.mac1609_4 	TimesIntoBackoff 	1
scalar MyScenario.node[95].nic.mac1609_4 	SlotsBackoff 	2
scalar MyScenario.node[95].nic.mac1609_4 	NumInternalContention 	0
scalar MyScenario.node[95].nic.mac1609_4 	totalBusyTime 	0.003017005711
scalar MyScenario.node[95].veinsmobility 	startTime 	1
scalar MyScenario.node[95].veinsmobility 	totalTime 	40
scalar MyScenario.node[95].veinsmobility 	stopTime 	42
scalar MyScenario.node[95].veinsmobility 	minSpeed 	1.6639603229472
scalar MyScenario.node[95].veinsmobility 	maxSpeed 	13.844351420621
scalar MyScenario.node[95].veinsmobility 	totalDistance 	453.10383475975
scalar MyScenario.node[95].veinsmobility 	totalCO2Emission 	135.96954316079
scalar MyScenario.node[1].appl 	generatedWSMs 	1
scalar MyScenario.node[1].appl 	receivedWSMs 	1
scalar MyScenario.node[1].appl 	generatedBSMs 	0
scalar MyScenario.node[1].appl 	receivedBSMs 	0
scalar MyScenario.node[1].appl 	generatedWSAs 	0
scalar MyScenario.node[1].appl 	receivedWSAs 	0
scalar MyScenario.node[1].nic.phy80211p 	busyTime 	8.4878048780488e-05
scalar MyScenario.node[1].nic.mac1609_4 	ReceivedUnicastPackets 	0
scalar MyScenario.node[1].nic.mac1609_4 	ReceivedBroadcasts 	1
scalar MyScenario.node[1].nic.mac1609_4 	SentPackets 	1
scalar MyScenario.node[1].nic.mac1609_4 	SNIRLostPackets 	14
scalar MyScenario.node[1].nic.mac1609_4 	RXTXLostPackets 	7
scalar MyScenario.node[1].nic.mac1609_4 	TotalLostPackets 	21
scalar MyScenario.node[1].nic.mac1609_4 	DroppedPacketsInMac 	0
scalar MyScenario.node[1].nic.mac1609_4 	TooLittleTime 	0
scalar MyScenario.node[1].nic.mac1609_4 	TimesIntoBackoff 	1
scalar MyScenario.node[1].nic.mac1609_4 	SlotsBackoff 	3
scalar MyScenario.node[1].nic.mac1609_4 	NumInternalContention 	0
scalar MyScenario.node[1].nic.mac1609_4 	totalBusyTime 	0.001393
scalar MyScenario.node[1].veinsmobility 	startTime 	1
scalar MyScenario.node[1].veinsmobility 	totalTime 	40
scalar MyScenario.node[1].veinsmobility 	stopTime 	42
scalar MyScenario.node[1].veinsmobility 	minSpeed 	2.5153901012614
scalar MyScenario.node[1].veinsmobility 	maxSpeed 	13.848503428558
scalar MyScenario.node[1].veinsmobility 	totalDistance 	478.88803406151
scalar MyScenario.node[1].veinsmobility 	totalCO2Emission 	118.14327834128
scalar MyScenario.node[136].appl 	generatedWSMs 	1
scalar MyScenario.node[136].appl 	receivedWSMs 	6
scalar MyScenario.node[136].appl 	generatedBSMs 	0
scalar MyScenario.node[136].appl 	receivedBSMs 	0
scalar MyScenario.node[136].appl 	generatedWSAs 	0
scalar MyScenario.node[136].appl 	receivedWSAs 	0
scalar MyScenario.node[136].nic.phy80211p 	busyTime 	0.00031485714285714
scalar MyScenario.node[136].nic.mac1609_4 	ReceivedUnicastPackets 	0
scalar MyScenario.node[136].nic.mac1609_4 	ReceivedBroadcasts 	6
scalar MyScenario.node[136].nic.mac1609_4 	SentPackets 	1
scalar MyScenario.node[136].nic.mac1609_4 	SNIRLostPackets 	51
scalar MyScenario.node[136].nic.mac1609_4 	RXTXLostPackets 	8
scalar MyScenario.node[136].nic.mac1609_4 	TotalLostPackets 	59
scalar MyScenario.node[136].nic.mac1609_4 	DroppedPacketsInMac 	0
scalar MyScenario.node[136].nic.mac1609_4 	TooLittleTime 	0
scalar MyScenario.node[136].nic.mac1609_4 	TimesIntoBackoff 	1
scalar MyScenario.node[136].nic.mac1609_4 	SlotsBackoff 	3
scalar MyScenario.node[136].nic.mac1609_4 	NumInternalContention 	0
scalar MyScenario.node[136].nic.mac1609_4 	totalBusyTime 	0.004177088194
scalar MyScenario.node[136].veinsmobility 	startTime 	1
scalar MyScenario.node[136].veinsmobility 	totalTime 	41
scalar MyScenario.node[136].veinsmobility 	stopTime 	43
scalar MyScenario.node[136].veinsmobility 	minSpeed 	1.4068959012395
scalar MyScenario.node[136].veinsmobility 	maxSpeed 	13.897742829286
scalar MyScenario.node[136].veinsmobility 	totalDistance 	473.5154110148
scalar MyScenario.node[136].veinsmobility 	totalCO2Emission 	136.46380882761
scalar MyScenario.node[62].appl 	generatedWSMs 	1
scalar MyScenario.node[62].appl 	receivedWSMs 	9
scalar MyScenario.node[62].appl 	generatedBSMs 	0
scalar MyScenario.node[62].appl 	receivedBSMs 	0
scalar MyScenario.node[62].appl 	generatedWSAs 	0
scalar MyScenario.node[62].appl 	receivedWSAs 	0
scalar MyScenario.node[62].nic.phy80211p 	busyTime 	0.00020438095238095
scalar MyScenario.node[62].nic.mac1609_4 	ReceivedUnicastPackets 	0
scalar MyScenario.node[62].nic.mac1609_4 	ReceivedBroadcasts 	9
scalar MyScenario.node[62].nic.mac1609_4 	SentPackets 	1
scalar MyScenario.node[62].nic.mac1609_4 	SNIRLostPackets 	28
scalar MyScenario.node[62].nic.mac1609_4 	RXTXLostPackets 	7
scalar MyScenario.node[62].nic.mac1609_4 	TotalLostPackets 	35
scalar MyScenario.node[62].nic.mac1609_4 	DroppedPacketsInMac 	0
scalar MyScenario.node[62].nic.mac1609_4 	TooLittleTime 	0
scalar MyScenario.node[62].nic.mac1609_4 	TimesIntoBackoff 	1
scalar MyScenario.node[62].nic.mac1609_4 	SlotsBackoff 	3
scalar MyScenario.node[62].nic.mac1609_4 	NumInternalContention 	0
scalar MyScenario.node[62].nic.mac1609_4 	totalBusyTime 	0.004177
scalar MyScenario.node[62].veinsmobility 	startTime 	1
scalar MyScenario.node[62].veinsmobility 	totalTime 	41
scalar MyScenario.node[62].veinsmobility 	stopTime 	43
scalar MyScenario.node[62].veinsmobility 	minSpeed 	1.4858207728481
scalar MyScenario.node[62].veinsmobility 	maxSpeed 	13.857162420382
scalar MyScenario.node[62].veinsmobility 	totalDistance 	467.91747845273
scalar MyScenario.node[62].veinsmobility 	totalCO2Emission 	142.67258147726
scalar MyScenario.node[55].appl 	generatedWSMs 	0
scalar MyScenario.node[55].appl 	receivedWSMs 	0
scalar MyScenario.node[55].appl 	generatedBSMs 	0
scalar MyScenario.node[55].appl 	receivedBSMs 	0
scalar MyScenario.node[55].appl 	generatedWSAs 	0
scalar MyScenario.node[55].appl 	receivedWSAs 	0
scalar MyScenario.node[55].nic.phy80211p 	busyTime 	4.9714285714286e-05
scalar MyScenario.node[55].nic.mac1609_4 	ReceivedUnicastPackets 	0
scalar MyScenario.node[55].nic.mac1609_4 	ReceivedBroadcasts 	0
scalar MyScenario.node[55].nic.mac1609_4 	SentPackets 	0
scalar MyScenario.node[55].nic.mac1609_4 	SNIRLostPackets 	9
scalar MyScenario.node[55].nic.mac1609_4 	RXTXLostPackets 	0
scalar MyScenario.node[55].nic.mac1609_4 	TotalLostPackets 	9
scalar MyScenario.node[55].nic.mac1609_4 	DroppedPacketsInMac 	0
scalar MyScenario.node[55].nic.mac1609_4 	TooLittleTime 	0
scalar MyScenario.node[55].nic.mac1609_4 	TimesIntoBackoff 	0
scalar MyScenario.node[55].nic.mac1609_4 	SlotsBackoff 	0
scalar MyScenario.node[55].nic.mac1609_4 	NumInternalContention 	0
scalar MyScenario.node[55].nic.mac1609_4 	totalBusyTime 	0.000464
scalar MyScenario.node[55].veinsmobility 	startTime 	1
scalar MyScenario.node[55].veinsmobility 	totalTime 	41
scalar MyScenario.node[55].veinsmobility 	stopTime 	43
scalar MyScenario.node[55].veinsmobility 	minSpeed 	2.5117072513094
scalar MyScenario.node[55].veinsmobility 	maxSpeed 	13.823264266364
scalar MyScenario.node[55].veinsmobility 	totalDistance 	472.79752106412
scalar MyScenario.node[55].veinsmobility 	totalCO2Emission 	139.19300207612
scalar MyScenario.node[27].appl 	generatedWSMs 	1
scalar MyScenario.node[27].appl 	receivedWSMs 	1
scalar MyScenario.node[27].appl 	generatedBSMs 	0
scalar MyScenario.node[27].appl 	receivedBSMs 	0
scalar MyScenario.node[27].appl 	generatedWSAs 	0
scalar MyScenario.node[27].appl 	receivedWSAs 	0
scalar MyScenario.node[27].nic.phy80211p 	busyTime 	0.00017804651162791
scalar MyScenario.node[27].nic.mac1609_4 	ReceivedUnicastPackets 	0
scalar MyScenario.node[27].nic.mac1609_4 	ReceivedBroadcasts 	1
scalar MyScenario.node[27].nic.mac1609_4 	SentPackets 	1
scalar MyScenario.node[27].nic.mac1609_4 	SNIRLostPackets 	32
scalar MyScenario.node[27].nic.mac1609_4 	RXTXLostPackets 	0
scalar MyScenario.node[27].nic.mac1609_4 	TotalLostPackets 	32
scalar MyScenario.node[27].nic.mac1609_4 	DroppedPacketsInMac 	0
scalar MyScenario.node[27].nic.mac1609_4 	TooLittleTime 	0
scalar MyScenario.node[27].nic.mac1609_4 	TimesIntoBackoff 	1
scalar MyScenario.node[27].nic.mac1609_4 	SlotsBackoff 	3
scalar MyScenario.node[27].nic.mac1609_4 	NumInternalContention 	0
scalar MyScenario.node[27].nic.mac1609_4 	totalBusyTime 	0.001393
scalar MyScenario.node[27].veinsmobility 	startTime 	1
scalar MyScenario.node[27].veinsmobility 	totalTime 	42
scalar MyScenario.node[27].veinsmobility 	stopTime 	44
scalar MyScenario.node[27].veinsmobility 	minSpeed 	1.7032884191489
scalar MyScenario.node[27].veinsmobility 	maxSpeed 	13.802681095223
scalar MyScenario.node[27].veinsmobility 	totalDistance 	473.59192841897
scalar MyScenario.node[27].veinsmobility 	totalCO2Emission 	138.09248216497
scalar MyScenario.node[78].appl 	generatedWSMs 	0
scalar MyScenario.node[78].appl 	receivedWSMs 	0
scalar MyScenario.node[78].appl 	generatedBSMs 	0
scalar MyScenario.node[78].appl 	receivedBSMs 	0
scalar MyScenario.node[78].appl 	generatedWSAs 	0
scalar MyScenario.node[78].appl 	receivedWSAs 	0
scalar MyScenario.node[78].nic.phy80211p 	busyTime 	5.3953488372093e-06
scalar MyScenario.node[78].nic.mac1609_4 	ReceivedUnicastPackets 	0
scalar MyScenario.node[78].nic.mac1609_4 	ReceivedBroadcasts 	0
scalar MyScenario.node[78].nic.mac1609_4 	SentPackets 	0
scalar MyScenario.node[78].nic.mac1609_4 	SNIRLostPackets 	1
scalar MyScenario.node[78].nic.mac1609_4 	RXTXLostPackets 	0
scalar MyScenario.node[78].nic.mac1609_4 	TotalLostPackets 	1
scalar MyScenario.node[78].nic.mac1609_4 	DroppedPacketsInMac 	0
scalar MyScenario.node[78].nic.mac1609_4 	TooLittleTime 	0
scalar MyScenario.node[78].nic.mac1609_4 	TimesIntoBackoff 	0
scalar MyScenario.node[78].nic.mac1609_4 	SlotsBackoff 	0
scalar MyScenario.node[78].nic.mac1609_4 	NumInternalContention 	0
scalar MyScenario.node[78].nic.mac1609_4 	totalBusyTime 	0.000232
scalar MyScenario.node[78].veinsmobility 	startTime 	1
scalar MyScenario.node[78].veinsmobility 	totalTime 	42
scalar MyScenario.node[78].veinsmobility 	stopTime 	44
scalar MyScenario.node[78].veinsmobility 	minSpeed 	2.073084662389
scalar MyScenario.node[78].veinsmobility 	maxSpeed 	13.840834665927
scalar MyScenario.node[78].veinsmobility 	totalDistance 	454.880819936
scalar MyScenario.node[78].veinsmobility 	totalCO2Emission 	154.26071581472
scalar MyScenario.node[74].appl 	generatedWSMs 	1
scalar MyScenario.node[74].appl 	receivedWSMs 	6
scalar MyScenario.node[74].appl 	generatedBSMs 	0
scalar MyScenario.node[74].appl 	receivedBSMs 	0
scalar MyScenario.node[74].appl 	generatedWSAs 	0
scalar MyScenario.node[74].appl 	receivedWSAs 	0
scalar MyScenario.node[74].nic.phy80211p 	busyTime 	0.00014567441860465
scalar MyScenario.node[74].nic.mac1609_4 	ReceivedUnicastPackets 	0
scalar MyScenario.node[74].nic.mac1609_4 	ReceivedBroadcasts 	6
scalar MyScenario.node[74].nic.mac1609_4 	SentPackets 	1
scalar MyScenario.node[74].nic.mac1609_4 	SNIRLostPackets 	21
scalar MyScenario.node[74].nic.mac1609_4 	RXTXLostPackets 	8
scalar MyScenario.node[74].nic.mac1609_4 	TotalLostPackets 	29
scalar MyScenario.node[74].nic.mac1609_4 	DroppedPacketsInMac 	0
scalar MyScenario.node[74].nic.mac1609_4 	TooLittleTime 	0
scalar MyScenario.node[74].nic.mac1609_4 	TimesIntoBackoff 	1
scalar MyScenario.node[74].nic.mac1609_4 	SlotsBackoff 	1
scalar MyScenario.node[74].nic.mac1609_4 	NumInternalContention 	0
scalar MyScenario.node[74].nic.mac1609_4 	totalBusyTime 	0.002553010634
scalar MyScenario.node[74].veinsmobility 	startTime 	1
scalar MyScenario.node[74].veinsmobility 	totalTime 	42
scalar MyScenario.node[74].veinsmobility 	stopTime 	44
scalar MyScenario.node[74].veinsmobility 	minSpeed 	1.9888207787648
scalar MyScenario.node[74].veinsmobility 	maxSpeed 	13.818961964571
scalar MyScenario.node[74].veinsmobility 	totalDistance 	469.12048532672
scalar MyScenario.node[74].veinsmobility 	totalCO2Emission 	142.48883851847
scalar MyScenario.node[83].appl 	generatedWSMs 	0
scalar MyScenario.node[83].appl 	receivedWSMs 	0
scalar MyScenario.node[83].appl 	generatedBSMs 	0
scalar MyScenario.node[83].appl 	receivedBSMs 	0
scalar MyScenario.node[83].appl 	generatedWSAs 	0
scalar MyScenario.node[83].appl 	receivedWSAs 	0
scalar MyScenario.node[83].nic.phy80211p 	busyTime 	4.8558139534884e-05
scalar MyScenario.node[83].nic.mac1609_4 	ReceivedUnicastPackets 	0
scalar MyScenario.node[83].nic.mac1609_4 	ReceivedBroadcasts 	0
scalar MyScenario.node[83].nic.mac1609_4 	SentPackets 	0
scalar MyScenario.node[83].nic.mac1609_4 	SNIRLostPackets 	9
scalar MyScenario.node[83].nic.mac1609_4 	RXTXLostPackets 	0
scalar MyScenario.node[83].nic.mac1609_4 	TotalLostPackets 	9
scalar MyScenario.node[83].nic.mac1609_4 	DroppedPacketsInMac 	0
scalar MyScenario.node[83].nic.mac1609_4 	TooLittleTime 	0
scalar MyScenario.node[83].nic.mac1609_4 	TimesIntoBackoff 	0
scalar MyScenario.node[83].nic.mac1609_4 	SlotsBackoff 	0
scalar MyScenario.node[83].nic.mac1609_4 	NumInternalContention 	0
scalar MyScenario.node[83].nic.mac1609_4 	totalBusyTime 	0.000696
scalar MyScenario.node[83].veinsmobility 	startTime 	1
scalar MyScenario.node[83].veinsmobility 	totalTime 	42
scalar MyScenario.node[83].veinsmobility 	stopTime 	44
scalar MyScenario.node[83].veinsmobility 	minSpeed 	2.5877634015167
scalar MyScenario.node[83].veinsmobility 	maxSpeed 	13.853185810265
scalar MyScenario.node[83].veinsmobility 	totalDistance 	472.5037585797
scalar MyScenario.node[83].veinsmobility 	totalCO2Emission 	140.25067307561
scalar MyScenario.node[91].appl 	generatedWSMs 	0
scalar MyScenario.node[91].appl 	receivedWSMs 	0
scalar MyScenario.node[91].appl 	generatedBSMs 	0
scalar MyScenario.node[91].appl 	receivedBSMs 	0
scalar MyScenario.node[91].appl 	generatedWSAs 	0
scalar MyScenario.node[91].appl 	receivedWSAs 	0
scalar MyScenario.node[91].nic.phy80211p 	busyTime 	2.6363636363636e-05
scalar MyScenario.node[91].nic.mac1609_4 	ReceivedUnicastPackets 	0
scalar MyScenario.node[91].nic.mac1609_4 	ReceivedBroadcasts 	0
scalar MyScenario.node[91].nic.mac1609_4 	SentPackets 	0
scalar MyScenario.node[91].nic.mac1609_4 	SNIRLostPackets 	5
scalar MyScenario.node[91].nic.mac1609_4 	RXTXLostPackets 	0
scalar MyScenario.node[91].nic.mac1609_4 	TotalLostPackets 	5
scalar MyScenario.node[91].nic.mac1609_4 	DroppedPacketsInMac 	0
scalar MyScenario.node[91].nic.mac1609_4 	TooLittleTime 	0
scalar MyScenario.node[91].nic.mac1609_4 	TimesIntoBackoff 	0
scalar MyScenario.node[91].nic.mac1609_4 	SlotsBackoff 	0
scalar MyScenario.node[91].nic.mac1609_4 	NumInternalContention 	0
scalar MyScenario.node[91].nic.mac1609_4 	totalBusyTime 	0.000232
scalar MyScenario.node[91].veinsmobility 	startTime 	1
scalar MyScenario.node[91].veinsmobility 	totalTime 	43
scalar MyScenario.node[91].veinsmobility 	stopTime 	45
scalar MyScenario.node[91].veinsmobility 	minSpeed 	2.3518039274029
scalar MyScenario.node[91].veinsmobility 	maxSpeed 	13.739209824475
scalar MyScenario.node[91].veinsmobility 	totalDistance 	463.73174155794
scalar MyScenario.node[91].veinsmobility 	totalCO2Emission 	156.61224384583
scalar MyScenario.node[115].appl 	generatedWSMs 	1
scalar MyScenario.node[115].appl 	receivedWSMs 	8
scalar MyScenario.node[115].appl 	generatedBSMs 	0
scalar MyScenario.node[115].appl 	receivedBSMs 	0
scalar MyScenario.node[115].appl 	generatedWSAs 	0
scalar MyScenario.node[115].appl 	receivedWSAs 	0
scalar MyScenario.node[115].nic.phy80211p 	busyTime 	0.00016872727272727
scalar MyScenario.node[115].nic.mac1609_4 	ReceivedUnicastPackets 	0
scalar MyScenario.node[115].nic.mac1609_4 	ReceivedBroadcasts 	8
scalar MyScenario.node[115].nic.mac1609_4 	SentPackets 	1
scalar MyScenario.node[115].nic.mac1609_4 	SNIRLostPackets 	24
scalar MyScenario.node[115].nic.mac1609_4 	RXTXLostPackets 	11
scalar MyScenario.node[115].nic.mac1609_4 	TotalLostPackets 	35
scalar MyScenario.node[115].nic.mac1609_4 	DroppedPacketsInMac 	0
scalar MyScenario.node[115].nic.mac1609_4 	TooLittleTime 	0
scalar MyScenario.node[115].nic.mac1609_4 	TimesIntoBackoff 	1
scalar MyScenario.node[115].nic.mac1609_4 	SlotsBackoff 	3
scalar MyScenario.node[115].nic.mac1609_4 	NumInternalContention 	0
scalar MyScenario.node[115].nic.mac1609_4 	totalBusyTime 	0.004409148812
scalar MyScenario.node[115].veinsmobility 	startTime 	1
scalar MyScenario.node[115].veinsmobility 	totalTime 	43
scalar MyScenario.node[115].veinsmobility 	stopTime 	45
scalar MyScenario.node[115].veinsmobility 	minSpeed 	0.26038186883374
scalar MyScenario.node[115].veinsmobility 	maxSpeed 	13.861656557629
scalar MyScenario.node[115].veinsmobility 	totalDistance 	373.84729201001
scalar MyScenario.node[115].veinsmobility 	totalCO2Emission 	137.21159403227
scalar MyScenario.node[186].appl 	generatedWSMs 	1
scalar MyScenario.node[186].appl 	receivedWSMs 	9
scalar MyScenario.node[186].appl 	generatedBSMs 	0
scalar MyScenario.node[186].appl 	receivedBSMs 	0
scalar MyScenario.node[186].appl 	generatedWSAs 	0
scalar MyScenario.node[186].appl 	receivedWSAs 	0
scalar MyScenario.node[186].nic.phy80211p 	busyTime 	0.00016975609756098
scalar MyScenario.node[186].nic.mac1609_4 	ReceivedUnicastPackets 	0
scalar MyScenario.node[186].nic.mac1609_4 	ReceivedBroadcasts 	9
scalar MyScenario.node[186].nic.mac1609_4 	SentPackets 	1
scalar MyScenario.node[186].nic.mac1609_4 	SNIRLostPackets 	21
scalar MyScenario.node[186].nic.mac1609_4 	RXTXLostPackets 	8
scalar MyScenario.node[186].nic.mac1609_4 	TotalLostPackets 	29
scalar MyScenario.node[186].nic.mac1609_4 	DroppedPacketsInMac 	0
scalar MyScenario.node[186].nic.mac1609_4 	TooLittleTime 	0
scalar MyScenario.node[186].nic.mac1609_4 	TimesIntoBackoff 	1
scalar MyScenario.node[186].nic.mac1609_4 	SlotsBackoff 	1
scalar MyScenario.node[186].nic.mac1609_4 	NumInternalContention 	0
scalar MyScenario.node[186].nic.mac1609_4 	totalBusyTime 	0.003945076019
scalar MyScenario.node[186].veinsmobility 	startTime 	4
scalar MyScenario.node[186].veinsmobility 	totalTime 	40
scalar MyScenario.node[186].veinsmobility 	stopTime 	45
scalar MyScenario.node[186].veinsmobility 	minSpeed 	3.4746083608551e-05
scalar MyScenario.node[186].veinsmobility 	maxSpeed 	13.661696023261
scalar MyScenario.node[186].veinsmobility 	totalDistance 	271.49376429579
scalar MyScenario.node[186].veinsmobility 	totalCO2Emission 	106.98480514429
scalar MyScenario.node[137].appl 	generatedWSMs 	0
scalar MyScenario.node[137].appl 	receivedWSMs 	0
scalar MyScenario.node[137].appl 	generatedBSMs 	0
scalar MyScenario.node[137].appl 	receivedBSMs 	0
scalar MyScenario.node[137].appl 	generatedWSAs 	0
scalar MyScenario.node[137].appl 	receivedWSAs 	0
scalar MyScenario.node[137].nic.phy80211p 	busyTime 	2.6363636363636e-05
scalar MyScenario.node[137].nic.mac1609_4 	ReceivedUnicastPackets 	0
scalar MyScenario.node[137].nic.mac1609_4 	ReceivedBroadcasts 	0
scalar MyScenario.node[137].nic.mac1609_4 	SentPackets 	0
scalar MyScenario.node[137].nic.mac1609_4 	SNIRLostPackets 	5
scalar MyScenario.node[137].nic.mac1609_4 	RXTXLostPackets 	0
scalar MyScenario.node[137].nic.mac1609_4 	TotalLostPackets 	5
scalar MyScenario.node[137].nic.mac1609_4 	DroppedPacketsInMac 	0
scalar MyScenario.node[137].nic.mac1609_4 	TooLittleTime 	0
scalar MyScenario.node[137].nic.mac1609_4 	TimesIntoBackoff 	0
scalar MyScenario.node[137].nic.mac1609_4 	SlotsBackoff 	0
scalar MyScenario.node[137].nic.mac1609_4 	NumInternalContention 	0
scalar MyScenario.node[137].nic.mac1609_4 	totalBusyTime 	0.000232
scalar MyScenario.node[137].veinsmobility 	startTime 	1
scalar MyScenario.node[137].veinsmobility 	totalTime 	43
scalar MyScenario.node[137].veinsmobility 	stopTime 	45
scalar MyScenario.node[137].veinsmobility 	minSpeed 	2.5999843505444
scalar MyScenario.node[137].veinsmobility 	maxSpeed 	13.878399596084
scalar MyScenario.node[137].veinsmobility 	totalDistance 	473.52717795971
scalar MyScenario.node[137].veinsmobility 	totalCO2Emission 	144.14398059864
scalar MyScenario.node[63].appl 	generatedWSMs 	1
scalar MyScenario.node[63].appl 	receivedWSMs 	1
scalar MyScenario.node[63].appl 	generatedBSMs 	0
scalar MyScenario.node[63].appl 	receivedBSMs 	0
scalar MyScenario.node[63].appl 	generatedWSAs 	0
scalar MyScenario.node[63].appl 	receivedWSAs 	0
scalar MyScenario.node[63].nic.phy80211p 	busyTime 	7.0608695652174e-05
scalar MyScenario.node[63].nic.mac1609_4 	ReceivedUnicastPackets 	0
scalar MyScenario.node[63].nic.mac1609_4 	ReceivedBroadcasts 	1
scalar MyScenario.node[63].nic.mac1609_4 	SentPackets 	1
scalar MyScenario.node[63].nic.mac1609_4 	SNIRLostPackets 	13
scalar MyScenario.node[63].nic.mac1609_4 	RXTXLostPackets 	11
scalar MyScenario.node[63].nic.mac1609_4 	TotalLostPackets 	24
scalar MyScenario.node[63].nic.mac1609_4 	DroppedPacketsInMac 	0
scalar MyScenario.node[63].nic.mac1609_4 	TooLittleTime 	0
scalar MyScenario.node[63].nic.mac1609_4 	TimesIntoBackoff 	1
scalar MyScenario.node[63].nic.mac1609_4 	SlotsBackoff 	2
scalar MyScenario.node[63].nic.mac1609_4 	NumInternalContention 	0
scalar MyScenario.node[63].nic.mac1609_4 	totalBusyTime 	0.001161060189
scalar MyScenario.node[63].veinsmobility 	startTime 	1
scalar MyScenario.node[63].veinsmobility 	totalTime 	45
scalar MyScenario.node[63].veinsmobility 	stopTime 	47
scalar MyScenario.node[63].veinsmobility 	minSpeed 	1.9379591385135
scalar MyScenario.node[63].veinsmobility 	maxSpeed 	13.847953159641
scalar MyScenario.node[63].veinsmobility 	totalDistance 	476.79689801359
scalar MyScenario.node[63].veinsmobility 	totalCO2Emission 	155.14357586648
scalar MyScenario.node[189].appl 	generatedWSMs 	0
scalar MyScenario.node[189].appl 	receivedWSMs 	0
scalar MyScenario.node[189].appl 	generatedBSMs 	0
scalar MyScenario.node[189].appl 	receivedBSMs 	0
scalar MyScenario.node[189].appl 	generatedWSAs 	0
scalar MyScenario.node[189].appl 	receivedWSAs 	0
scalar MyScenario.node[189].nic.phy80211p 	busyTime 	0
scalar MyScenario.node[189].nic.mac1609_4 	ReceivedUnicastPackets 	0
scalar MyScenario.node[189].nic.mac1609_4 	ReceivedBroadcasts 	0
scalar MyScenario.node[189].nic.mac1609_4 	SentPackets 	0
scalar MyScenario.node[189].nic.mac1609_4 	SNIRLostPackets 	0
scalar MyScenario.node[189].nic.mac1609_4 	RXTXLostPackets 	0
scalar MyScenario.node[189].nic.mac1609_4 	TotalLostPackets 	0
scalar MyScenario.node[189].nic.mac1609_4 	DroppedPacketsInMac 	0
scalar MyScenario.node[189].nic.mac1609_4 	TooLittleTime 	0
scalar MyScenario.node[189].nic.mac1609_4 	TimesIntoBackoff 	0
scalar MyScenario.node[189].nic.mac1609_4 	SlotsBackoff 	0
scalar MyScenario.node[189].nic.mac1609_4 	NumInternalContention 	0
scalar MyScenario.node[189].nic.mac1609_4 	totalBusyTime 	0
scalar MyScenario.node[189].veinsmobility 	startTime 	4
scalar MyScenario.node[189].veinsmobility 	totalTime 	42
scalar MyScenario.node[189].veinsmobility 	stopTime 	47
scalar MyScenario.node[189].veinsmobility 	minSpeed 	2.283996299142
scalar MyScenario.node[189].veinsmobility 	maxSpeed 	13.896833068132
scalar MyScenario.node[189].veinsmobility 	totalDistance 	483.65850623076
scalar MyScenario.node[189].veinsmobility 	totalCO2Emission 	125.37256264133
scalar MyScenario.node[128].appl 	generatedWSMs 	0
scalar MyScenario.node[128].appl 	receivedWSMs 	0
scalar MyScenario.node[128].appl 	generatedBSMs 	0
scalar MyScenario.node[128].appl 	receivedBSMs 	0
scalar MyScenario.node[128].appl 	generatedWSAs 	0
scalar MyScenario.node[128].appl 	receivedWSAs 	0
scalar MyScenario.node[128].nic.phy80211p 	busyTime 	0
scalar MyScenario.node[128].nic.mac1609_4 	ReceivedUnicastPackets 	0
scalar MyScenario.node[128].nic.mac1609_4 	ReceivedBroadcasts 	0
scalar MyScenario.node[128].nic.mac1609_4 	SentPackets 	0
scalar MyScenario.node[128].nic.mac1609_4 	SNIRLostPackets 	0
scalar MyScenario.node[128].nic.mac1609_4 	RXTXLostPackets 	0
scalar MyScenario.node[128].nic.mac1609_4 	TotalLostPackets 	0
scalar MyScenario.node[128].nic.mac1609_4 	DroppedPacketsInMac 	0
scalar MyScenario.node[128].nic.mac1609_4 	TooLittleTime 	0
scalar MyScenario.node[128].nic.mac1609_4 	TimesIntoBackoff 	0
scalar MyScenario.node[128].nic.mac1609_4 	SlotsBackoff 	0
scalar MyScenario.node[128].nic.mac1609_4 	NumInternalContention 	0
scalar MyScenario.node[128].nic.mac1609_4 	totalBusyTime 	0
scalar MyScenario.node[128].veinsmobility 	startTime 	1
scalar MyScenario.node[128].veinsmobility 	totalTime 	46
scalar MyScenario.node[128].veinsmobility 	stopTime 	48
scalar MyScenario.node[128].veinsmobility 	minSpeed 	1.0032392609991
scalar MyScenario.node[128].veinsmobility 	maxSpeed 	13.743296518037
scalar MyScenario.node[128].veinsmobility 	totalDistance 	480.36414948168
scalar MyScenario.node[128].veinsmobility 	totalCO2Emission 	152.89955185712
scalar MyScenario.node[176].appl 	generatedWSMs 	1
scalar MyScenario.node[176].appl 	receivedWSMs 	1
scalar MyScenario.node[176].appl 	generatedBSMs 	0
scalar MyScenario.node[176].appl 	receivedBSMs 	0
scalar MyScenario.node[176].appl 	generatedWSAs 	0
scalar MyScenario.node[176].appl 	receivedWSAs 	0
scalar MyScenario.node[176].nic.phy80211p 	busyTime 	5.8e-05
scalar MyScenario.node[176].nic.mac1609_4 	ReceivedUnicastPackets 	0
scalar MyScenario.node[176].nic.mac1609_4 	ReceivedBroadcasts 	1
scalar MyScenario.node[176].nic.mac1609_4 	SentPackets 	1
scalar MyScenario.node[176].nic.mac1609_4 	SNIRLostPackets 	10
scalar MyScenario.node[176].nic.mac1609_4 	RXTXLostPackets 	11
scalar MyScenario.node[176].nic.mac1609_4 	TotalLostPackets 	21
scalar MyScenario.node[176].nic.mac1609_4 	DroppedPacketsInMac 	0
scalar MyScenario.node[176].nic.mac1609_4 	TooLittleTime 	0
scalar MyScenario.node[176].nic.mac1609_4 	TimesIntoBackoff 	1
scalar MyScenario.node[176].nic.mac1609_4 	SlotsBackoff 	1
scalar MyScenario.node[176].nic.mac1609_4 	NumInternalContention 	0
scalar MyScenario.node[176].nic.mac1609_4 	totalBusyTime 	0.000929110187
scalar MyScenario.node[176].veinsmobility 	startTime 	4
scalar MyScenario.node[176].veinsmobility 	totalTime 	43
scalar MyScenario.node[176].veinsmobility 	stopTime 	48
scalar MyScenario.node[176].veinsmobility 	minSpeed 	2.0223321774372e-05
scalar MyScenario.node[176].veinsmobility 	maxSpeed 	13.851465428621
scalar MyScenario.node[176].veinsmobility 	totalDistance 	376.92311937532
scalar MyScenario.node[176].veinsmobility 	totalCO2Emission 	142.72774198478
scalar MyScenario.node[200].appl 	generatedWSMs 	1
scalar MyScenario.node[200].appl 	receivedWSMs 	1
scalar MyScenario.node[200].appl 	generatedBSMs 	0
scalar MyScenario.node[200].appl 	receivedBSMs 	0
scalar MyScenario.node[200].appl 	generatedWSAs 	0
scalar MyScenario.node[200].appl 	receivedWSAs 	0
scalar MyScenario.node[200].nic.phy80211p 	busyTime 	1.8810810810811e-05
scalar MyScenario.node[200].nic.mac1609_4 	ReceivedUnicastPackets 	0
scalar MyScenario.node[200].nic.mac1609_4 	ReceivedBroadcasts 	1
scalar MyScenario.node[200].nic.mac1609_4 	SentPackets 	1
scalar MyScenario.node[200].nic.mac1609_4 	SNIRLostPackets 	2
scalar MyScenario.node[200].nic.mac1609_4 	RXTXLostPackets 	2
scalar MyScenario.node[200].nic.mac1609_4 	TotalLostPackets 	4
scalar MyScenario.node[200].nic.mac1609_4 	DroppedPacketsInMac 	0
scalar MyScenario.node[200].nic.mac1609_4 	TooLittleTime 	0
scalar MyScenario.node[200].nic.mac1609_4 	TimesIntoBackoff 	1
scalar MyScenario.node[200].nic.mac1609_4 	SlotsBackoff 	0
scalar MyScenario.node[200].nic.mac1609_4 	NumInternalContention 	0
scalar MyScenario.node[200].nic.mac1609_4 	totalBusyTime 	0.000697
scalar MyScenario.node[200].veinsmobility 	startTime 	11
scalar MyScenario.node[200].veinsmobility 	totalTime 	36
scalar MyScenario.node[200].veinsmobility 	stopTime 	48
scalar MyScenario.node[200].veinsmobility 	minSpeed 	12.664602818131
scalar MyScenario.node[200].veinsmobility 	maxSpeed 	13.890270469245
scalar MyScenario.node[200].veinsmobility 	totalDistance 	478.70997070029
scalar MyScenario.node[200].veinsmobility 	totalCO2Emission 	79.571121481631
scalar MyScenario.node[143].appl 	generatedWSMs 	0
scalar MyScenario.node[143].appl 	receivedWSMs 	0
scalar MyScenario.node[143].appl 	generatedBSMs 	0
scalar MyScenario.node[143].appl 	receivedBSMs 	0
scalar MyScenario.node[143].appl 	generatedWSAs 	0
scalar MyScenario.node[143].appl 	receivedWSAs 	0
scalar MyScenario.node[143].nic.phy80211p 	busyTime 	1.8938775510204e-05
scalar MyScenario.node[143].nic.mac1609_4 	ReceivedUnicastPackets 	0
scalar MyScenario.node[143].nic.mac1609_4 	ReceivedBroadcasts 	0
scalar MyScenario.node[143].nic.mac1609_4 	SentPackets 	0
scalar MyScenario.node[143].nic.mac1609_4 	SNIRLostPackets 	4
scalar MyScenario.node[143].nic.mac1609_4 	RXTXLostPackets 	0
scalar MyScenario.node[143].nic.mac1609_4 	TotalLostPackets 	4
scalar MyScenario.node[143].nic.mac1609_4 	DroppedPacketsInMac 	0
scalar MyScenario.node[143].nic.mac1609_4 	TooLittleTime 	0
scalar MyScenario.node[143].nic.mac1609_4 	TimesIntoBackoff 	0
scalar MyScenario.node[143].nic.mac1609_4 	SlotsBackoff 	0
scalar MyScenario.node[143].nic.mac1609_4 	NumInternalContention 	0
scalar MyScenario.node[143].nic.mac1609_4 	totalBusyTime 	0.000232
scalar MyScenario.node[143].veinsmobility 	startTime 	1
scalar MyScenario.node[143].veinsmobility 	totalTime 	48
scalar MyScenario.node[143].veinsmobility 	stopTime 	50
scalar MyScenario.node[143].veinsmobility 	minSpeed 	0.0017184052016959
scalar MyScenario.node[143].veinsmobility 	maxSpeed 	13.831880829437
scalar MyScenario.node[143].veinsmobility 	totalDistance 	480.77984072076
scalar MyScenario.node[143].veinsmobility 	totalCO2Emission 	137.39765598066
scalar MyScenario.node[159].appl 	generatedWSMs 	1
scalar MyScenario.node[159].appl 	receivedWSMs 	7
scalar MyScenario.node[159].appl 	generatedBSMs 	0
scalar MyScenario.node[159].appl 	receivedBSMs 	0
scalar MyScenario.node[159].appl 	generatedWSAs 	0
scalar MyScenario.node[159].appl 	receivedWSAs 	0
scalar MyScenario.node[159].nic.phy80211p 	busyTime 	7.5652173913043e-05
scalar MyScenario.node[159].nic.mac1609_4 	ReceivedUnicastPackets 	0
scalar MyScenario.node[159].nic.mac1609_4 	ReceivedBroadcasts 	7
scalar MyScenario.node[159].nic.mac1609_4 	SentPackets 	1
scalar MyScenario.node[159].nic.mac1609_4 	SNIRLostPackets 	8
scalar MyScenario.node[159].nic.mac1609_4 	RXTXLostPackets 	10
scalar MyScenario.node[159].nic.mac1609_4 	TotalLostPackets 	18
scalar MyScenario.node[159].nic.mac1609_4 	DroppedPacketsInMac 	0
scalar MyScenario.node[159].nic.mac1609_4 	TooLittleTime 	0
scalar MyScenario.node[159].nic.mac1609_4 	TimesIntoBackoff 	1
scalar MyScenario.node[159].nic.mac1609_4 	SlotsBackoff 	2
scalar MyScenario.node[159].nic.mac1609_4 	NumInternalContention 	0
scalar MyScenario.node[159].nic.mac1609_4 	totalBusyTime 	0.002785044823
scalar MyScenario.node[159].veinsmobility 	startTime 	4
scalar MyScenario.node[159].veinsmobility 	totalTime 	45
scalar MyScenario.node[159].veinsmobility 	stopTime 	50
scalar MyScenario.node[159].veinsmobility 	minSpeed 	3.1885094851036e-07
scalar MyScenario.node[159].veinsmobility 	maxSpeed 	13.77760292904
scalar MyScenario.node[159].veinsmobility 	totalDistance 	375.88048373744
scalar MyScenario.node[159].veinsmobility 	totalCO2Emission 	133.45149594946
scalar MyScenario.node[3].appl 	generatedWSMs 	1
scalar MyScenario.node[3].appl 	receivedWSMs 	1
scalar MyScenario.node[3].appl 	generatedBSMs 	0
scalar MyScenario.node[3].appl 	receivedBSMs 	0
scalar MyScenario.node[3].appl 	generatedWSAs 	0
scalar MyScenario.node[3].appl 	receivedWSAs 	0
scalar MyScenario.node[3].nic.phy80211p 	busyTime 	2.8408163265306e-05
scalar MyScenario.node[3].nic.mac1609_4 	ReceivedUnicastPackets 	0
scalar MyScenario.node[3].nic.mac1609_4 	ReceivedBroadcasts 	1
scalar MyScenario.node[3].nic.mac1609_4 	SentPackets 	1
scalar MyScenario.node[3].nic.mac1609_4 	SNIRLostPackets 	5
scalar MyScenario.node[3].nic.mac1609_4 	RXTXLostPackets 	9
scalar MyScenario.node[3].nic.mac1609_4 	TotalLostPackets 	14
scalar MyScenario.node[3].nic.mac1609_4 	DroppedPacketsInMac 	0
scalar MyScenario.node[3].nic.mac1609_4 	TooLittleTime 	0
scalar MyScenario.node[3].nic.mac1609_4 	TimesIntoBackoff 	1
scalar MyScenario.node[3].nic.mac1609_4 	SlotsBackoff 	0
scalar MyScenario.node[3].nic.mac1609_4 	NumInternalContention 	0
scalar MyScenario.node[3].nic.mac1609_4 	totalBusyTime 	0.000929068654
scalar MyScenario.node[3].veinsmobility 	startTime 	1
scalar MyScenario.node[3].veinsmobility 	totalTime 	48
scalar MyScenario.node[3].veinsmobility 	stopTime 	50
scalar MyScenario.node[3].veinsmobility 	minSpeed 	0.74780439991691
scalar MyScenario.node[3].veinsmobility 	maxSpeed 	13.590162752173
scalar MyScenario.node[3].veinsmobility 	totalDistance 	462.54881677345
scalar MyScenario.node[3].veinsmobility 	totalCO2Emission 	179.53541093889
scalar MyScenario.node[22].appl 	generatedWSMs 	0
scalar MyScenario.node[22].appl 	receivedWSMs 	0
scalar MyScenario.node[22].appl 	generatedBSMs 	0
scalar MyScenario.node[22].appl 	receivedBSMs 	0
scalar MyScenario.node[22].appl 	generatedWSAs 	0
scalar MyScenario.node[22].appl 	receivedWSAs 	0
scalar MyScenario.node[22].nic.phy80211p 	busyTime 	1.856e-05
scalar MyScenario.node[22].nic.mac1609_4 	ReceivedUnicastPackets 	0
scalar MyScenario.node[22].nic.mac1609_4 	ReceivedBroadcasts 	0
scalar MyScenario.node[22].nic.mac1609_4 	SentPackets 	0
scalar MyScenario.node[22].nic.mac1609_4 	SNIRLostPackets 	4
scalar MyScenario.node[22].nic.mac1609_4 	RXTXLostPackets 	0
scalar MyScenario.node[22].nic.mac1609_4 	TotalLostPackets 	4
scalar MyScenario.node[22].nic.mac1609_4 	DroppedPacketsInMac 	0
scalar MyScenario.node[22].nic.mac1609_4 	TooLittleTime 	0
scalar MyScenario.node[22].nic.mac1609_4 	TimesIntoBackoff 	0
scalar MyScenario.node[22].nic.mac1609_4 	SlotsBackoff 	0
scalar MyScenario.node[22].nic.mac1609_4 	NumInternalContention 	0
scalar MyScenario.node[22].nic.mac1609_4 	totalBusyTime 	0.000232
scalar MyScenario.node[22].veinsmobility 	startTime 	1
scalar MyScenario.node[22].veinsmobility 	totalTime 	49
scalar MyScenario.node[22].veinsmobility 	stopTime 	51
scalar MyScenario.node[22].veinsmobility 	minSpeed 	0.00028073794581567
scalar MyScenario.node[22].veinsmobility 	maxSpeed 	13.884129733709
scalar MyScenario.node[22].veinsmobility 	totalDistance 	474.54895985464
scalar MyScenario.node[22].veinsmobility 	totalCO2Emission 	136.90489312097
scalar MyScenario.node[50].appl 	generatedWSMs 	1
scalar MyScenario.node[50].appl 	receivedWSMs 	7
scalar MyScenario.node[50].appl 	generatedBSMs 	0
scalar MyScenario.node[50].appl 	receivedBSMs 	0
scalar MyScenario.node[50].appl 	generatedWSAs 	0
scalar MyScenario.node[50].appl 	receivedWSAs 	0
scalar MyScenario.node[50].nic.phy80211p 	busyTime 	8.352e-05
scalar MyScenario.node[50].nic.mac1609_4 	ReceivedUnicastPackets 	0
scalar MyScenario.node[50].nic.mac1609_4 	ReceivedBroadcasts 	7
scalar MyScenario.node[50].nic.mac1609_4 	SentPackets 	1
scalar MyScenario.node[50].nic.mac1609_4 	SNIRLostPackets 	11
scalar MyScenario.node[50].nic.mac1609_4 	RXTXLostPackets 	17
scalar MyScenario.node[50].nic.mac1609_4 	TotalLostPackets 	28
scalar MyScenario.node[50].nic.mac1609_4 	DroppedPacketsInMac 	0
scalar MyScenario.node[50].nic.mac1609_4 	TooLittleTime 	0
scalar MyScenario.node[50].nic.mac1609_4 	TimesIntoBackoff 	1
scalar MyScenario.node[50].nic.mac1609_4 	SlotsBackoff 	1
scalar MyScenario.node[50].nic.mac1609_4 	NumInternalContention 	0
scalar MyScenario.node[50].nic.mac1609_4 	totalBusyTime 	0.002553
scalar MyScenario.node[50].veinsmobility 	startTime 	1
scalar MyScenario.node[50].veinsmobility 	totalTime 	49
scalar MyScenario.node[50].veinsmobility 	stopTime 	51
scalar MyScenario.node[50].veinsmobility 	minSpeed 	1.7161976609146
scalar MyScenario.node[50].veinsmobility 	maxSpeed 	13.881894786353
scalar MyScenario.node[50].veinsmobility 	totalDistance 	585.26103742893
scalar MyScenario.node[50].veinsmobility 	totalCO2Emission 	141.33770820644
scalar MyScenario.node[30].appl 	generatedWSMs 	1
scalar MyScenario.node[30].appl 	receivedWSMs 	1
scalar MyScenario.node[30].appl 	generatedBSMs 	0
scalar MyScenario.node[30].appl 	receivedBSMs 	0
scalar MyScenario.node[30].appl 	generatedWSAs 	0
scalar MyScenario.node[30].appl 	receivedWSAs 	0
scalar MyScenario.node[30].nic.phy80211p 	busyTime 	9.0980392156863e-06
scalar MyScenario.node[30].nic.mac1609_4 	ReceivedUnicastPackets 	0
scalar MyScenario.node[30].nic.mac1609_4 	ReceivedBroadcasts 	1
scalar MyScenario.node[30].nic.mac1609_4 	SentPackets 	1
scalar MyScenario.node[30].nic.mac1609_4 	SNIRLostPackets 	1
scalar MyScenario.node[30].nic.mac1609_4 	RXTXLostPackets 	11
scalar MyScenario.node[30].nic.mac1609_4 	TotalLostPackets 	12
scalar MyScenario.node[30].nic.mac1609_4 	DroppedPacketsInMac 	0
scalar MyScenario.node[30].nic.mac1609_4 	TooLittleTime 	0
scalar MyScenario.node[30].nic.mac1609_4 	TimesIntoBackoff 	1
scalar MyScenario.node[30].nic.mac1609_4 	SlotsBackoff 	2
scalar MyScenario.node[30].nic.mac1609_4 	NumInternalContention 	0
scalar MyScenario.node[30].nic.mac1609_4 	totalBusyTime 	0.000697073489
scalar MyScenario.node[30].veinsmobility 	startTime 	1
scalar MyScenario.node[30].veinsmobility 	totalTime 	50
scalar MyScenario.node[30].veinsmobility 	stopTime 	52
scalar MyScenario.node[30].veinsmobility 	minSpeed 	0.071319976830974
scalar MyScenario.node[30].veinsmobility 	maxSpeed 	13.766979896184
scalar MyScenario.node[30].veinsmobility 	totalDistance 	481.02661260993
scalar MyScenario.node[30].veinsmobility 	totalCO2Emission 	182.5067623911
scalar MyScenario.node[157].appl 	generatedWSMs 	1
scalar MyScenario.node[157].appl 	receivedWSMs 	3
scalar MyScenario.node[157].appl 	generatedBSMs 	0
scalar MyScenario.node[157].appl 	receivedBSMs 	0
scalar MyScenario.node[157].appl 	generatedWSAs 	0
scalar MyScenario.node[157].appl 	receivedWSAs 	0
scalar MyScenario.node[157].nic.phy80211p 	busyTime 	8.9959183673469e-05
scalar MyScenario.node[157].nic.mac1609_4 	ReceivedUnicastPackets 	0
scalar MyScenario.node[157].nic.mac1609_4 	ReceivedBroadcasts 	3
scalar MyScenario.node[157].nic.mac1609_4 	SentPackets 	1
scalar MyScenario.node[157].nic.mac1609_4 	SNIRLostPackets 	16
scalar MyScenario.node[157].nic.mac1609_4 	RXTXLostPackets 	4
scalar MyScenario.node[157].nic.mac1609_4 	TotalLostPackets 	20
scalar MyScenario.node[157].nic.mac1609_4 	DroppedPacketsInMac 	0
scalar MyScenario.node[157].nic.mac1609_4 	TooLittleTime 	0
scalar MyScenario.node[157].nic.mac1609_4 	TimesIntoBackoff 	1
scalar MyScenario.node[157].nic.mac1609_4 	SlotsBackoff 	1
scalar MyScenario.node[157].nic.mac1609_4 	NumInternalContention 	0
scalar MyScenario.node[157].nic.mac1609_4 	totalBusyTime 	0.002553
scalar MyScenario.node[157].veinsmobility 	startTime 	4
scalar MyScenario.node[157].veinsmobility 	totalTime 	48
scalar MyScenario.node[157].veinsmobility 	stopTime 	53
scalar MyScenario.node[157].veinsmobility 	minSpeed 	2.4586087716511
scalar MyScenario.node[157].veinsmobility 	maxSpeed 	13.899358332064
scalar MyScenario.node[157].veinsmobility 	totalDistance 	566.78335548083
scalar MyScenario.node[157].veinsmobility 	totalCO2Emission 	139.21114698962
scalar MyScenario.node[201].appl 	generatedWSMs 	1
scalar MyScenario.node[201].appl 	receivedWSMs 	2
scalar MyScenario.node[201].appl 	generatedBSMs 	0
scalar MyScenario.node[201].appl 	receivedBSMs 	0
scalar MyScenario.node[201].appl 	generatedWSAs 	0
scalar MyScenario.node[201].appl 	receivedWSAs 	0
scalar MyScenario.node[201].nic.phy80211p 	busyTime 	3.9609756097561e-05
scalar MyScenario.node[201].nic.mac1609_4 	ReceivedUnicastPackets 	0
scalar MyScenario.node[201].nic.mac1609_4 	ReceivedBroadcasts 	2
scalar MyScenario.node[201].nic.mac1609_4 	SentPackets 	1
scalar MyScenario.node[201].nic.mac1609_4 	SNIRLostPackets 	5
scalar MyScenario.node[201].nic.mac1609_4 	RXTXLostPackets 	9
scalar MyScenario.node[201].nic.mac1609_4 	TotalLostPackets 	14
scalar MyScenario.node[201].nic.mac1609_4 	DroppedPacketsInMac 	0
scalar MyScenario.node[201].nic.mac1609_4 	TooLittleTime 	0
scalar MyScenario.node[201].nic.mac1609_4 	TimesIntoBackoff 	1
scalar MyScenario.node[201].nic.mac1609_4 	SlotsBackoff 	0
scalar MyScenario.node[201].nic.mac1609_4 	NumInternalContention 	0
scalar MyScenario.node[201].nic.mac1609_4 	totalBusyTime 	0.001393147902
scalar MyScenario.node[201].veinsmobility 	startTime 	12
scalar MyScenario.node[201].veinsmobility 	totalTime 	40
scalar MyScenario.node[201].veinsmobility 	stopTime 	53
scalar MyScenario.node[201].veinsmobility 	minSpeed 	5.2722737914226
scalar MyScenario.node[201].veinsmobility 	maxSpeed 	13.709419947452
scalar MyScenario.node[201].veinsmobility 	totalDistance 	465.92127013038
scalar MyScenario.node[201].veinsmobility 	totalCO2Emission 	125.67983138002
scalar MyScenario.node[75].appl 	generatedWSMs 	1
scalar MyScenario.node[75].appl 	receivedWSMs 	1
scalar MyScenario.node[75].appl 	generatedBSMs 	0
scalar MyScenario.node[75].appl 	receivedBSMs 	0
scalar MyScenario.node[75].appl 	generatedWSAs 	0
scalar MyScenario.node[75].appl 	receivedWSAs 	0
scalar MyScenario.node[75].nic.phy80211p 	busyTime 	3.1230769230769e-05
scalar MyScenario.node[75].nic.mac1609_4 	ReceivedUnicastPackets 	0
scalar MyScenario.node[75].nic.mac1609_4 	ReceivedBroadcasts 	1
scalar MyScenario.node[75].nic.mac1609_4 	SentPackets 	1
scalar MyScenario.node[75].nic.mac1609_4 	SNIRLostPackets 	6
scalar MyScenario.node[75].nic.mac1609_4 	RXTXLostPackets 	8
scalar MyScenario.node[75].nic.mac1609_4 	TotalLostPackets 	14
scalar MyScenario.node[75].nic.mac1609_4 	DroppedPacketsInMac 	0
scalar MyScenario.node[75].nic.mac1609_4 	TooLittleTime 	0
scalar MyScenario.node[75].nic.mac1609_4 	TimesIntoBackoff 	1
scalar MyScenario.node[75].nic.mac1609_4 	SlotsBackoff 	2
scalar MyScenario.node[75].nic.mac1609_4 	NumInternalContention 	0
scalar MyScenario.node[75].nic.mac1609_4 	totalBusyTime 	0.000929000464
scalar MyScenario.node[75].veinsmobility 	startTime 	1
scalar MyScenario.node[75].veinsmobility 	totalTime 	51
scalar MyScenario.node[75].veinsmobility 	stopTime 	53
scalar MyScenario.node[75].veinsmobility 	minSpeed 	0.0011585474309345
scalar MyScenario.node[75].veinsmobility 	maxSpeed 	13.541872721887
scalar MyScenario.node[75].veinsmobility 	totalDistance 	474.59362047586
scalar MyScenario.node[75].veinsmobility 	totalCO2Emission 	169.51672828187
scalar MyScenario.node[162].appl 	generatedWSMs 	0
scalar MyScenario.node[162].appl 	receivedWSMs 	0
scalar MyScenario.node[162].appl 	generatedBSMs 	0
scalar MyScenario.node[162].appl 	receivedBSMs 	0
scalar MyScenario.node[162].appl 	generatedWSAs 	0
scalar MyScenario.node[162].appl 	receivedWSAs 	0
scalar MyScenario.node[162].nic.phy80211p 	busyTime 	8.352e-05
scalar MyScenario.node[162].nic.mac1609_4 	ReceivedUnicastPackets 	0
scalar MyScenario.node[162].nic.mac1609_4 	ReceivedBroadcasts 	0
scalar MyScenario.node[162].nic.mac1609_4 	SentPackets 	0
scalar MyScenario.node[162].nic.mac1609_4 	SNIRLostPackets 	18
scalar MyScenario.node[162].nic.mac1609_4 	RXTXLostPackets 	0
scalar MyScenario.node[162].nic.mac1609_4 	TotalLostPackets 	18
scalar MyScenario.node[162].nic.mac1609_4 	DroppedPacketsInMac 	0
scalar MyScenario.node[162].nic.mac1609_4 	TooLittleTime 	0
scalar MyScenario.node[162].nic.mac1609_4 	TimesIntoBackoff 	0
scalar MyScenario.node[162].nic.mac1609_4 	SlotsBackoff 	0
scalar MyScenario.node[162].nic.mac1609_4 	NumInternalContention 	0
scalar MyScenario.node[162].nic.mac1609_4 	totalBusyTime 	0.000696
scalar MyScenario.node[162].veinsmobility 	startTime 	4
scalar MyScenario.node[162].veinsmobility 	totalTime 	49
scalar MyScenario.node[162].veinsmobility 	stopTime 	54
scalar MyScenario.node[162].veinsmobility 	minSpeed 	2.5042665337212
scalar MyScenario.node[162].veinsmobility 	maxSpeed 	13.874853543798
scalar MyScenario.node[162].veinsmobility 	totalDistance 	573.17693019738
scalar MyScenario.node[162].veinsmobility 	totalCO2Emission 	150.94798204046
scalar MyScenario.node[90].appl 	generatedWSMs 	1
scalar MyScenario.node[90].appl 	receivedWSMs 	17
scalar MyScenario.node[90].appl 	generatedBSMs 	0
scalar MyScenario.node[90].appl 	receivedBSMs 	0
scalar MyScenario.node[90].appl 	generatedWSAs 	0
scalar MyScenario.node[90].appl 	receivedWSAs 	0
scalar MyScenario.node[90].nic.phy80211p 	busyTime 	0.0001202962962963
scalar MyScenario.node[90].nic.mac1609_4 	ReceivedUnicastPackets 	0
scalar MyScenario.node[90].nic.mac1609_4 	ReceivedBroadcasts 	17
scalar MyScenario.node[90].nic.mac1609_4 	SentPackets 	1
scalar MyScenario.node[90].nic.mac1609_4 	SNIRLostPackets 	11
scalar MyScenario.node[90].nic.mac1609_4 	RXTXLostPackets 	6
scalar MyScenario.node[90].nic.mac1609_4 	TotalLostPackets 	17
scalar MyScenario.node[90].nic.mac1609_4 	DroppedPacketsInMac 	0
scalar MyScenario.node[90].nic.mac1609_4 	TooLittleTime 	0
scalar MyScenario.node[90].nic.mac1609_4 	TimesIntoBackoff 	1
scalar MyScenario.node[90].nic.mac1609_4 	SlotsBackoff 	2
scalar MyScenario.node[90].nic.mac1609_4 	NumInternalContention 	0
scalar MyScenario.node[90].nic.mac1609_4 	totalBusyTime 	0.005337058903
scalar MyScenario.node[90].veinsmobility 	startTime 	1
scalar MyScenario.node[90].veinsmobility 	totalTime 	53
scalar MyScenario.node[90].veinsmobility 	stopTime 	55
scalar MyScenario.node[90].veinsmobility 	minSpeed 	1.9102519427892
scalar MyScenario.node[90].veinsmobility 	maxSpeed 	13.788035006332
scalar MyScenario.node[90].veinsmobility 	totalDistance 	572.30841673075
scalar MyScenario.node[90].veinsmobility 	totalCO2Emission 	166.96422581467
scalar MyScenario.node[144].appl 	generatedWSMs 	1
scalar MyScenario.node[144].appl 	receivedWSMs 	2
scalar MyScenario.node[144].appl 	generatedBSMs 	0
scalar MyScenario.node[144].appl 	receivedBSMs 	0
scalar MyScenario.node[144].appl 	generatedWSAs 	0
scalar MyScenario.node[144].appl 	receivedWSAs 	0
scalar MyScenario.node[144].nic.phy80211p 	busyTime 	7.7333333333333e-05
scalar MyScenario.node[144].nic.mac1609_4 	ReceivedUnicastPackets 	0
scalar MyScenario.node[144].nic.mac1609_4 	ReceivedBroadcasts 	2
scalar MyScenario.node[144].nic.mac1609_4 	SentPackets 	1
scalar MyScenario.node[144].nic.mac1609_4 	SNIRLostPackets 	16
scalar MyScenario.node[144].nic.mac1609_4 	RXTXLostPackets 	16
scalar MyScenario.node[144].nic.mac1609_4 	TotalLostPackets 	32
scalar MyScenario.node[144].nic.mac1609_4 	DroppedPacketsInMac 	0
scalar MyScenario.node[144].nic.mac1609_4 	TooLittleTime 	0
scalar MyScenario.node[144].nic.mac1609_4 	TimesIntoBackoff 	1
scalar MyScenario.node[144].nic.mac1609_4 	SlotsBackoff 	1
scalar MyScenario.node[144].nic.mac1609_4 	NumInternalContention 	0
scalar MyScenario.node[144].nic.mac1609_4 	totalBusyTime 	0.001857188584
scalar MyScenario.node[144].veinsmobility 	startTime 	1
scalar MyScenario.node[144].veinsmobility 	totalTime 	53
scalar MyScenario.node[144].veinsmobility 	stopTime 	55
scalar MyScenario.node[144].veinsmobility 	minSpeed 	0.027126671558639
scalar MyScenario.node[144].veinsmobility 	maxSpeed 	13.76137569244
scalar MyScenario.node[144].veinsmobility 	totalDistance 	566.31116732072
scalar MyScenario.node[144].veinsmobility 	totalCO2Emission 	150.43155531484
scalar MyScenario.node[118].appl 	generatedWSMs 	1
scalar MyScenario.node[118].appl 	receivedWSMs 	3
scalar MyScenario.node[118].appl 	generatedBSMs 	0
scalar MyScenario.node[118].appl 	receivedBSMs 	0
scalar MyScenario.node[118].appl 	generatedWSAs 	0
scalar MyScenario.node[118].appl 	receivedWSAs 	0
scalar MyScenario.node[118].nic.phy80211p 	busyTime 	9.28e-05
scalar MyScenario.node[118].nic.mac1609_4 	ReceivedUnicastPackets 	0
scalar MyScenario.node[118].nic.mac1609_4 	ReceivedBroadcasts 	3
scalar MyScenario.node[118].nic.mac1609_4 	SentPackets 	1
scalar MyScenario.node[118].nic.mac1609_4 	SNIRLostPackets 	19
scalar MyScenario.node[118].nic.mac1609_4 	RXTXLostPackets 	6
scalar MyScenario.node[118].nic.mac1609_4 	TotalLostPackets 	25
scalar MyScenario.node[118].nic.mac1609_4 	DroppedPacketsInMac 	0
scalar MyScenario.node[118].nic.mac1609_4 	TooLittleTime 	0
scalar MyScenario.node[118].nic.mac1609_4 	TimesIntoBackoff 	1
scalar MyScenario.node[118].nic.mac1609_4 	SlotsBackoff 	2
scalar MyScenario.node[118].nic.mac1609_4 	NumInternalContention 	0
scalar MyScenario.node[118].nic.mac1609_4 	totalBusyTime 	0.002089111682
scalar MyScenario.node[118].veinsmobility 	startTime 	1
scalar MyScenario.node[118].veinsmobility 	totalTime 	54
scalar MyScenario.node[118].veinsmobility 	stopTime 	56
scalar MyScenario.node[118].veinsmobility 	minSpeed 	0.05529434501536
scalar MyScenario.node[118].veinsmobility 	maxSpeed 	13.847617201367
scalar MyScenario.node[118].veinsmobility 	totalDistance 	572.18542024444
scalar MyScenario.node[118].veinsmobility 	totalCO2Emission 	167.37315687502
scalar MyScenario.node[31].appl 	generatedWSMs 	0
scalar MyScenario.node[31].appl 	receivedWSMs 	0
scalar MyScenario.node[31].appl 	generatedBSMs 	0
scalar MyScenario.node[31].appl 	receivedBSMs 	0
scalar MyScenario.node[31].appl 	generatedWSAs 	0
scalar MyScenario.node[31].appl 	receivedWSAs 	0
scalar MyScenario.node[31].nic.phy80211p 	busyTime 	0
scalar MyScenario.node[31].nic.mac1609_4 	ReceivedUnicastPackets 	0
scalar MyScenario.node[31].nic.mac1609_4 	ReceivedBroadcasts 	0
scalar MyScenario.node[31].nic.mac1609_4 	SentPackets 	0
scalar MyScenario.node[31].nic.mac1609_4 	SNIRLostPackets 	0
scalar MyScenario.node[31].nic.mac1609_4 	RXTXLostPackets 	0
scalar MyScenario.node[31].nic.mac1609_4 	TotalLostPackets 	0
scalar MyScenario.node[31].nic.mac1609_4 	DroppedPacketsInMac 	0
scalar MyScenario.node[31].nic.mac1609_4 	TooLittleTime 	0
scalar MyScenario.node[31].nic.mac1609_4 	TimesIntoBackoff 	0
scalar MyScenario.node[31].nic.mac1609_4 	SlotsBackoff 	0
scalar MyScenario.node[31].nic.mac1609_4 	NumInternalContention 	0
scalar MyScenario.node[31].nic.mac1609_4 	totalBusyTime 	0
scalar MyScenario.node[31].veinsmobility 	startTime 	1
scalar MyScenario.node[31].veinsmobility 	totalTime 	55
scalar MyScenario.node[31].veinsmobility 	stopTime 	57
scalar MyScenario.node[31].veinsmobility 	minSpeed 	1.7868156865938
scalar MyScenario.node[31].veinsmobility 	maxSpeed 	13.848050279613
scalar MyScenario.node[31].veinsmobility 	totalDistance 	669.57961084374
scalar MyScenario.node[31].veinsmobility 	totalCO2Emission 	143.70739770839
scalar MyScenario.node[145].appl 	generatedWSMs 	1
scalar MyScenario.node[145].appl 	receivedWSMs 	15
scalar MyScenario.node[145].appl 	generatedBSMs 	0
scalar MyScenario.node[145].appl 	receivedBSMs 	0
scalar MyScenario.node[145].appl 	generatedWSAs 	0
scalar MyScenario.node[145].appl 	receivedWSAs 	0
scalar MyScenario.node[145].nic.phy80211p 	busyTime 	0.00013024561403509
scalar MyScenario.node[145].nic.mac1609_4 	ReceivedUnicastPackets 	0
scalar MyScenario.node[145].nic.mac1609_4 	ReceivedBroadcasts 	15
scalar MyScenario.node[145].nic.mac1609_4 	SentPackets 	1
scalar MyScenario.node[145].nic.mac1609_4 	SNIRLostPackets 	17
scalar MyScenario.node[145].nic.mac1609_4 	RXTXLostPackets 	8
scalar MyScenario.node[145].nic.mac1609_4 	TotalLostPackets 	25
scalar MyScenario.node[145].nic.mac1609_4 	DroppedPacketsInMac 	0
scalar MyScenario.node[145].nic.mac1609_4 	TooLittleTime 	0
scalar MyScenario.node[145].nic.mac1609_4 	TimesIntoBackoff 	1
scalar MyScenario.node[145].nic.mac1609_4 	SlotsBackoff 	1
scalar MyScenario.node[145].nic.mac1609_4 	NumInternalContention 	0
scalar MyScenario.node[145].nic.mac1609_4 	totalBusyTime 	0.005105017411
scalar MyScenario.node[145].veinsmobility 	startTime 	1
scalar MyScenario.node[145].veinsmobility 	totalTime 	56
scalar MyScenario.node[145].veinsmobility 	stopTime 	58
scalar MyScenario.node[145].veinsmobility 	minSpeed 	1.801209670119
scalar MyScenario.node[145].veinsmobility 	maxSpeed 	13.854033710924
scalar MyScenario.node[145].veinsmobility 	totalDistance 	662.17120124898
scalar MyScenario.node[145].veinsmobility 	totalCO2Emission 	171.3040235699
scalar MyScenario.node[154].appl 	generatedWSMs 	1
scalar MyScenario.node[154].appl 	receivedWSMs 	3
scalar MyScenario.node[154].appl 	generatedBSMs 	0
scalar MyScenario.node[154].appl 	receivedBSMs 	0
scalar MyScenario.node[154].appl 	generatedWSAs 	0
scalar MyScenario.node[154].appl 	receivedWSAs 	0
scalar MyScenario.node[154].nic.phy80211p 	busyTime 	5.1555555555556e-05
scalar MyScenario.node[154].nic.mac1609_4 	ReceivedUnicastPackets 	0
scalar MyScenario.node[154].nic.mac1609_4 	ReceivedBroadcasts 	3
scalar MyScenario.node[154].nic.mac1609_4 	SentPackets 	1
scalar MyScenario.node[154].nic.mac1609_4 	SNIRLostPackets 	9
scalar MyScenario.node[154].nic.mac1609_4 	RXTXLostPackets 	9
scalar MyScenario.node[154].nic.mac1609_4 	TotalLostPackets 	18
scalar MyScenario.node[154].nic.mac1609_4 	DroppedPacketsInMac 	0
scalar MyScenario.node[154].nic.mac1609_4 	TooLittleTime 	0
scalar MyScenario.node[154].nic.mac1609_4 	TimesIntoBackoff 	1
scalar MyScenario.node[154].nic.mac1609_4 	SlotsBackoff 	3
scalar MyScenario.node[154].nic.mac1609_4 	NumInternalContention 	0
scalar MyScenario.node[154].nic.mac1609_4 	totalBusyTime 	0.001625090256
scalar MyScenario.node[154].veinsmobility 	startTime 	4
scalar MyScenario.node[154].veinsmobility 	totalTime 	53
scalar MyScenario.node[154].veinsmobility 	stopTime 	58
scalar MyScenario.node[154].veinsmobility 	minSpeed 	0.0050441320729736
scalar MyScenario.node[154].veinsmobility 	maxSpeed 	13.835590384225
scalar MyScenario.node[154].veinsmobility 	totalDistance 	463.83106530193
scalar MyScenario.node[154].veinsmobility 	totalCO2Emission 	159.05002021054
scalar MyScenario.node[84].appl 	generatedWSMs 	0
scalar MyScenario.node[84].appl 	receivedWSMs 	0
scalar MyScenario.node[84].appl 	generatedBSMs 	0
scalar MyScenario.node[84].appl 	receivedBSMs 	0
scalar MyScenario.node[84].appl 	generatedWSAs 	0
scalar MyScenario.node[84].appl 	receivedWSAs 	0
scalar MyScenario.node[84].nic.phy80211p 	busyTime 	0
scalar MyScenario.node[84].nic.mac1609_4 	ReceivedUnicastPackets 	0
[...]
scalar MyScenario.node[97].nic.mac1609_4 	RXTXLostPackets 	6
scalar MyScenario.node[97].nic.mac1609_4 	TotalLostPackets 	9
scalar MyScenario.node[97].nic.mac1609_4 	DroppedPacketsInMac 	0
scalar MyScenario.node[97].nic.mac1609_4 	TooLittleTime 	0
scalar MyScenario.node[97].nic.mac1609_4 	TimesIntoBackoff 	1
scalar MyScenario.node[97].nic.mac1609_4 	SlotsBackoff 	0
scalar MyScenario.node[97].nic.mac1609_4 	NumInternalContention 	0
scalar MyScenario.node[97].nic.mac1609_4 	totalBusyTime 	0.005337
scalar MyScenario.node[97].veinsmobility 	startTime 	1
scalar MyScenario.node[97].veinsmobility 	totalTime 	125
scalar MyScenario.node[97].veinsmobility 	stopTime 	127
scalar MyScenario.node[97].veinsmobility 	minSpeed 	2.0736334012436e-07
scalar MyScenario.node[97].veinsmobility 	maxSpeed 	13.80163932601
scalar MyScenario.node[97].veinsmobility 	totalDistance 	1162.6621514308
scalar MyScenario.node[97].veinsmobility 	totalCO2Emission 	398.00926983544
scalar MyScenario.node[71].appl 	generatedWSMs 	1
scalar MyScenario.node[71].appl 	receivedWSMs 	7
scalar MyScenario.node[71].appl 	generatedBSMs 	0
scalar MyScenario.node[71].appl 	receivedBSMs 	0
scalar MyScenario.node[71].appl 	generatedWSAs 	0
scalar MyScenario.node[71].appl 	receivedWSAs 	0
scalar MyScenario.node[71].nic.phy80211p 	busyTime 	3.288188976378e-05
scalar MyScenario.node[71].nic.mac1609_4 	ReceivedUnicastPackets 	0
scalar MyScenario.node[71].nic.mac1609_4 	ReceivedBroadcasts 	7
scalar MyScenario.node[71].nic.mac1609_4 	SentPackets 	1
scalar MyScenario.node[71].nic.mac1609_4 	SNIRLostPackets 	11
scalar MyScenario.node[71].nic.mac1609_4 	RXTXLostPackets 	14
scalar MyScenario.node[71].nic.mac1609_4 	TotalLostPackets 	25
scalar MyScenario.node[71].nic.mac1609_4 	DroppedPacketsInMac 	0
scalar MyScenario.node[71].nic.mac1609_4 	TooLittleTime 	0
scalar MyScenario.node[71].nic.mac1609_4 	TimesIntoBackoff 	1
scalar MyScenario.node[71].nic.mac1609_4 	SlotsBackoff 	2
scalar MyScenario.node[71].nic.mac1609_4 	NumInternalContention 	0
scalar MyScenario.node[71].nic.mac1609_4 	totalBusyTime 	0.002785048182
scalar MyScenario.node[71].veinsmobility 	startTime 	1
scalar MyScenario.node[71].veinsmobility 	totalTime 	126
scalar MyScenario.node[71].veinsmobility 	stopTime 	128
scalar MyScenario.node[71].veinsmobility 	minSpeed 	1.2071228741487e-08
scalar MyScenario.node[71].veinsmobility 	maxSpeed 	13.892757070973
scalar MyScenario.node[71].veinsmobility 	totalDistance 	1279.4351308896
scalar MyScenario.node[71].veinsmobility 	totalCO2Emission 	378.24709256532
scalar MyScenario.node[110].appl 	generatedWSMs 	1
scalar MyScenario.node[110].appl 	receivedWSMs 	16
scalar MyScenario.node[110].appl 	generatedBSMs 	0
scalar MyScenario.node[110].appl 	receivedBSMs 	0
scalar MyScenario.node[110].appl 	generatedWSAs 	0
scalar MyScenario.node[110].appl 	receivedWSAs 	0
scalar MyScenario.node[110].nic.phy80211p 	busyTime 	7.6724409448819e-05
scalar MyScenario.node[110].nic.mac1609_4 	ReceivedUnicastPackets 	0
scalar MyScenario.node[110].nic.mac1609_4 	ReceivedBroadcasts 	16
scalar MyScenario.node[110].nic.mac1609_4 	SentPackets 	1
scalar MyScenario.node[110].nic.mac1609_4 	SNIRLostPackets 	26
scalar MyScenario.node[110].nic.mac1609_4 	RXTXLostPackets 	1
scalar MyScenario.node[110].nic.mac1609_4 	TotalLostPackets 	27
scalar MyScenario.node[110].nic.mac1609_4 	DroppedPacketsInMac 	0
scalar MyScenario.node[110].nic.mac1609_4 	TooLittleTime 	0
scalar MyScenario.node[110].nic.mac1609_4 	TimesIntoBackoff 	1
scalar MyScenario.node[110].nic.mac1609_4 	SlotsBackoff 	1
scalar MyScenario.node[110].nic.mac1609_4 	NumInternalContention 	0
scalar MyScenario.node[110].nic.mac1609_4 	totalBusyTime 	0.005337029046
scalar MyScenario.node[110].veinsmobility 	startTime 	1
scalar MyScenario.node[110].veinsmobility 	totalTime 	126
scalar MyScenario.node[110].veinsmobility 	stopTime 	128
scalar MyScenario.node[110].veinsmobility 	minSpeed 	0.0052502135197708
scalar MyScenario.node[110].veinsmobility 	maxSpeed 	13.865003979905
scalar MyScenario.node[110].veinsmobility 	totalDistance 	1170.3320004326
scalar MyScenario.node[110].veinsmobility 	totalCO2Emission 	379.72855903909
scalar MyScenario.node[18].appl 	generatedWSMs 	1
scalar MyScenario.node[18].appl 	receivedWSMs 	15
scalar MyScenario.node[18].appl 	generatedBSMs 	0
scalar MyScenario.node[18].appl 	receivedBSMs 	0
scalar MyScenario.node[18].appl 	generatedWSAs 	0
scalar MyScenario.node[18].appl 	receivedWSAs 	0
scalar MyScenario.node[18].nic.phy80211p 	busyTime 	5.8456692913386e-05
scalar MyScenario.node[18].nic.mac1609_4 	ReceivedUnicastPackets 	0
scalar MyScenario.node[18].nic.mac1609_4 	ReceivedBroadcasts 	15
scalar MyScenario.node[18].nic.mac1609_4 	SentPackets 	1
scalar MyScenario.node[18].nic.mac1609_4 	SNIRLostPackets 	17
scalar MyScenario.node[18].nic.mac1609_4 	RXTXLostPackets 	16
scalar MyScenario.node[18].nic.mac1609_4 	TotalLostPackets 	33
scalar MyScenario.node[18].nic.mac1609_4 	DroppedPacketsInMac 	0
scalar MyScenario.node[18].nic.mac1609_4 	TooLittleTime 	0
scalar MyScenario.node[18].nic.mac1609_4 	TimesIntoBackoff 	1
scalar MyScenario.node[18].nic.mac1609_4 	SlotsBackoff 	0
scalar MyScenario.node[18].nic.mac1609_4 	NumInternalContention 	0
scalar MyScenario.node[18].nic.mac1609_4 	totalBusyTime 	0.004873180233
scalar MyScenario.node[18].veinsmobility 	startTime 	1
scalar MyScenario.node[18].veinsmobility 	totalTime 	126
scalar MyScenario.node[18].veinsmobility 	stopTime 	128
scalar MyScenario.node[18].veinsmobility 	minSpeed 	0
scalar MyScenario.node[18].veinsmobility 	maxSpeed 	13.871725929133
scalar MyScenario.node[18].veinsmobility 	totalDistance 	781.31197231296
scalar MyScenario.node[18].veinsmobility 	totalCO2Emission 	261.63384433224
scalar MyScenario.node[13].appl 	generatedWSMs 	1
scalar MyScenario.node[13].appl 	receivedWSMs 	2
scalar MyScenario.node[13].appl 	generatedBSMs 	0
scalar MyScenario.node[13].appl 	receivedBSMs 	0
scalar MyScenario.node[13].appl 	generatedWSAs 	0
scalar MyScenario.node[13].appl 	receivedWSAs 	0
scalar MyScenario.node[13].nic.phy80211p 	busyTime 	1.99375e-05
scalar MyScenario.node[13].nic.mac1609_4 	ReceivedUnicastPackets 	0
scalar MyScenario.node[13].nic.mac1609_4 	ReceivedBroadcasts 	2
scalar MyScenario.node[13].nic.mac1609_4 	SentPackets 	1
scalar MyScenario.node[13].nic.mac1609_4 	SNIRLostPackets 	9
scalar MyScenario.node[13].nic.mac1609_4 	RXTXLostPackets 	1
scalar MyScenario.node[13].nic.mac1609_4 	TotalLostPackets 	10
scalar MyScenario.node[13].nic.mac1609_4 	DroppedPacketsInMac 	0
scalar MyScenario.node[13].nic.mac1609_4 	TooLittleTime 	0
scalar MyScenario.node[13].nic.mac1609_4 	TimesIntoBackoff 	1
scalar MyScenario.node[13].nic.mac1609_4 	SlotsBackoff 	3
scalar MyScenario.node[13].nic.mac1609_4 	NumInternalContention 	0
scalar MyScenario.node[13].nic.mac1609_4 	totalBusyTime 	0.001161
scalar MyScenario.node[13].veinsmobility 	startTime 	1
scalar MyScenario.node[13].veinsmobility 	totalTime 	127
scalar MyScenario.node[13].veinsmobility 	stopTime 	129
scalar MyScenario.node[13].veinsmobility 	minSpeed 	0.006444559530233
scalar MyScenario.node[13].veinsmobility 	maxSpeed 	13.892934748274
scalar MyScenario.node[13].veinsmobility 	totalDistance 	1172.8731803786
scalar MyScenario.node[13].veinsmobility 	totalCO2Emission 	429.82812750141
scalar MyScenario.node[34].appl 	generatedWSMs 	1
scalar MyScenario.node[34].appl 	receivedWSMs 	12
scalar MyScenario.node[34].appl 	generatedBSMs 	0
scalar MyScenario.node[34].appl 	receivedBSMs 	0
scalar MyScenario.node[34].appl 	generatedWSAs 	0
scalar MyScenario.node[34].appl 	receivedWSAs 	0
scalar MyScenario.node[34].nic.phy80211p 	busyTime 	4.8184615384615e-05
scalar MyScenario.node[34].nic.mac1609_4 	ReceivedUnicastPackets 	0
scalar MyScenario.node[34].nic.mac1609_4 	ReceivedBroadcasts 	12
scalar MyScenario.node[34].nic.mac1609_4 	SentPackets 	1
scalar MyScenario.node[34].nic.mac1609_4 	SNIRLostPackets 	15
scalar MyScenario.node[34].nic.mac1609_4 	RXTXLostPackets 	11
scalar MyScenario.node[34].nic.mac1609_4 	TotalLostPackets 	26
scalar MyScenario.node[34].nic.mac1609_4 	DroppedPacketsInMac 	0
scalar MyScenario.node[34].nic.mac1609_4 	TooLittleTime 	0
scalar MyScenario.node[34].nic.mac1609_4 	TimesIntoBackoff 	1
scalar MyScenario.node[34].nic.mac1609_4 	SlotsBackoff 	3
scalar MyScenario.node[34].nic.mac1609_4 	NumInternalContention 	0
scalar MyScenario.node[34].nic.mac1609_4 	totalBusyTime 	0.003249
scalar MyScenario.node[34].veinsmobility 	startTime 	1
scalar MyScenario.node[34].veinsmobility 	totalTime 	129
scalar MyScenario.node[34].veinsmobility 	stopTime 	131
scalar MyScenario.node[34].veinsmobility 	minSpeed 	4.2447377191891e-09
scalar MyScenario.node[34].veinsmobility 	maxSpeed 	13.888037112169
scalar MyScenario.node[34].veinsmobility 	totalDistance 	1167.0742190125
scalar MyScenario.node[34].veinsmobility 	totalCO2Emission 	386.08353541698
scalar MyScenario.node[164].appl 	generatedWSMs 	1
scalar MyScenario.node[164].appl 	receivedWSMs 	16
scalar MyScenario.node[164].appl 	generatedBSMs 	0
scalar MyScenario.node[164].appl 	receivedBSMs 	0
scalar MyScenario.node[164].appl 	generatedWSAs 	0
scalar MyScenario.node[164].appl 	receivedWSAs 	0
scalar MyScenario.node[164].nic.phy80211p 	busyTime 	4.7125e-05
scalar MyScenario.node[164].nic.mac1609_4 	ReceivedUnicastPackets 	0
scalar MyScenario.node[164].nic.mac1609_4 	ReceivedBroadcasts 	16
scalar MyScenario.node[164].nic.mac1609_4 	SentPackets 	1
scalar MyScenario.node[164].nic.mac1609_4 	SNIRLostPackets 	10
scalar MyScenario.node[164].nic.mac1609_4 	RXTXLostPackets 	11
scalar MyScenario.node[164].nic.mac1609_4 	TotalLostPackets 	21
scalar MyScenario.node[164].nic.mac1609_4 	DroppedPacketsInMac 	0
scalar MyScenario.node[164].nic.mac1609_4 	TooLittleTime 	0
scalar MyScenario.node[164].nic.mac1609_4 	TimesIntoBackoff 	1
scalar MyScenario.node[164].nic.mac1609_4 	SlotsBackoff 	1
scalar MyScenario.node[164].nic.mac1609_4 	NumInternalContention 	0
scalar MyScenario.node[164].nic.mac1609_4 	totalBusyTime 	0.00464115658
scalar MyScenario.node[164].veinsmobility 	startTime 	4
scalar MyScenario.node[164].veinsmobility 	totalTime 	127
scalar MyScenario.node[164].veinsmobility 	stopTime 	132
scalar MyScenario.node[164].veinsmobility 	minSpeed 	0.095088723635986
scalar MyScenario.node[164].veinsmobility 	maxSpeed 	13.891492369585
scalar MyScenario.node[164].veinsmobility 	totalDistance 	1158.7241698124
scalar MyScenario.node[164].veinsmobility 	totalCO2Emission 	421.94240717673
scalar MyScenario.node[41].appl 	generatedWSMs 	1
scalar MyScenario.node[41].appl 	receivedWSMs 	19
scalar MyScenario.node[41].appl 	generatedBSMs 	0
scalar MyScenario.node[41].appl 	receivedBSMs 	0
scalar MyScenario.node[41].appl 	generatedWSAs 	0
scalar MyScenario.node[41].appl 	receivedWSAs 	0
scalar MyScenario.node[41].nic.phy80211p 	busyTime 	6.803007518797e-05
scalar MyScenario.node[41].nic.mac1609_4 	ReceivedUnicastPackets 	0
scalar MyScenario.node[41].nic.mac1609_4 	ReceivedBroadcasts 	19
scalar MyScenario.node[41].nic.mac1609_4 	SentPackets 	1
scalar MyScenario.node[41].nic.mac1609_4 	SNIRLostPackets 	20
scalar MyScenario.node[41].nic.mac1609_4 	RXTXLostPackets 	10
scalar MyScenario.node[41].nic.mac1609_4 	TotalLostPackets 	30
scalar MyScenario.node[41].nic.mac1609_4 	DroppedPacketsInMac 	0
scalar MyScenario.node[41].nic.mac1609_4 	TooLittleTime 	0
scalar MyScenario.node[41].nic.mac1609_4 	TimesIntoBackoff 	1
scalar MyScenario.node[41].nic.mac1609_4 	SlotsBackoff 	0
scalar MyScenario.node[41].nic.mac1609_4 	NumInternalContention 	0
scalar MyScenario.node[41].nic.mac1609_4 	totalBusyTime 	0.006033057142
scalar MyScenario.node[41].veinsmobility 	startTime 	1
scalar MyScenario.node[41].veinsmobility 	totalTime 	132
scalar MyScenario.node[41].veinsmobility 	stopTime 	134
scalar MyScenario.node[41].veinsmobility 	minSpeed 	0.033892176063956
scalar MyScenario.node[41].veinsmobility 	maxSpeed 	13.851580149727
scalar MyScenario.node[41].veinsmobility 	totalDistance 	1185.7880636286
scalar MyScenario.node[41].veinsmobility 	totalCO2Emission 	418.94939130654
scalar MyScenario.node[85].appl 	generatedWSMs 	1
scalar MyScenario.node[85].appl 	receivedWSMs 	7
scalar MyScenario.node[85].appl 	generatedBSMs 	0
scalar MyScenario.node[85].appl 	receivedBSMs 	0
scalar MyScenario.node[85].appl 	generatedWSAs 	0
scalar MyScenario.node[85].appl 	receivedWSAs 	0
scalar MyScenario.node[85].nic.phy80211p 	busyTime 	2.7701492537313e-05
scalar MyScenario.node[85].nic.mac1609_4 	ReceivedUnicastPackets 	0
scalar MyScenario.node[85].nic.mac1609_4 	ReceivedBroadcasts 	7
scalar MyScenario.node[85].nic.mac1609_4 	SentPackets 	1
scalar MyScenario.node[85].nic.mac1609_4 	SNIRLostPackets 	9
scalar MyScenario.node[85].nic.mac1609_4 	RXTXLostPackets 	4
scalar MyScenario.node[85].nic.mac1609_4 	TotalLostPackets 	13
scalar MyScenario.node[85].nic.mac1609_4 	DroppedPacketsInMac 	0
scalar MyScenario.node[85].nic.mac1609_4 	TooLittleTime 	0
scalar MyScenario.node[85].nic.mac1609_4 	TimesIntoBackoff 	1
scalar MyScenario.node[85].nic.mac1609_4 	SlotsBackoff 	0
scalar MyScenario.node[85].nic.mac1609_4 	NumInternalContention 	0
scalar MyScenario.node[85].nic.mac1609_4 	totalBusyTime 	0.002553
scalar MyScenario.node[85].veinsmobility 	startTime 	1
scalar MyScenario.node[85].veinsmobility 	totalTime 	133
scalar MyScenario.node[85].veinsmobility 	stopTime 	135
scalar MyScenario.node[85].veinsmobility 	minSpeed 	1.6228400300723
scalar MyScenario.node[85].veinsmobility 	maxSpeed 	13.893091617851
scalar MyScenario.node[85].veinsmobility 	totalDistance 	1563.7652237615
scalar MyScenario.node[85].veinsmobility 	totalCO2Emission 	420.18385073489
scalar MyScenario.node[187].appl 	generatedWSMs 	1
scalar MyScenario.node[187].appl 	receivedWSMs 	10
scalar MyScenario.node[187].appl 	generatedBSMs 	0
scalar MyScenario.node[187].appl 	receivedBSMs 	0
scalar MyScenario.node[187].appl 	generatedWSAs 	0
scalar MyScenario.node[187].appl 	receivedWSAs 	0
scalar MyScenario.node[187].nic.phy80211p 	busyTime 	4.0732824427481e-05
scalar MyScenario.node[187].nic.mac1609_4 	ReceivedUnicastPackets 	0
scalar MyScenario.node[187].nic.mac1609_4 	ReceivedBroadcasts 	10
scalar MyScenario.node[187].nic.mac1609_4 	SentPackets 	1
scalar MyScenario.node[187].nic.mac1609_4 	SNIRLostPackets 	13
scalar MyScenario.node[187].nic.mac1609_4 	RXTXLostPackets 	11
scalar MyScenario.node[187].nic.mac1609_4 	TotalLostPackets 	24
scalar MyScenario.node[187].nic.mac1609_4 	DroppedPacketsInMac 	0
scalar MyScenario.node[187].nic.mac1609_4 	TooLittleTime 	0
scalar MyScenario.node[187].nic.mac1609_4 	TimesIntoBackoff 	1
scalar MyScenario.node[187].nic.mac1609_4 	SlotsBackoff 	3
scalar MyScenario.node[187].nic.mac1609_4 	NumInternalContention 	0
scalar MyScenario.node[187].nic.mac1609_4 	totalBusyTime 	0.003249106881
scalar MyScenario.node[187].veinsmobility 	startTime 	4
scalar MyScenario.node[187].veinsmobility 	totalTime 	130
scalar MyScenario.node[187].veinsmobility 	stopTime 	135
scalar MyScenario.node[187].veinsmobility 	minSpeed 	0.0013616841918812
scalar MyScenario.node[187].veinsmobility 	maxSpeed 	13.821718367236
scalar MyScenario.node[187].veinsmobility 	totalDistance 	1269.1845303433
scalar MyScenario.node[187].veinsmobility 	totalCO2Emission 	396.26665396263
scalar MyScenario.node[19].appl 	generatedWSMs 	1
scalar MyScenario.node[19].appl 	receivedWSMs 	4
scalar MyScenario.node[19].appl 	generatedBSMs 	0
scalar MyScenario.node[19].appl 	receivedBSMs 	0
scalar MyScenario.node[19].appl 	generatedWSAs 	0
scalar MyScenario.node[19].appl 	receivedWSAs 	0
scalar MyScenario.node[19].nic.phy80211p 	busyTime 	4.3710144927536e-05
scalar MyScenario.node[19].nic.mac1609_4 	ReceivedUnicastPackets 	0
scalar MyScenario.node[19].nic.mac1609_4 	ReceivedBroadcasts 	4
scalar MyScenario.node[19].nic.mac1609_4 	SentPackets 	1
scalar MyScenario.node[19].nic.mac1609_4 	SNIRLostPackets 	22
scalar MyScenario.node[19].nic.mac1609_4 	RXTXLostPackets 	0
scalar MyScenario.node[19].nic.mac1609_4 	TotalLostPackets 	22
scalar MyScenario.node[19].nic.mac1609_4 	DroppedPacketsInMac 	0
scalar MyScenario.node[19].nic.mac1609_4 	TooLittleTime 	0
scalar MyScenario.node[19].nic.mac1609_4 	TimesIntoBackoff 	1
scalar MyScenario.node[19].nic.mac1609_4 	SlotsBackoff 	0
scalar MyScenario.node[19].nic.mac1609_4 	NumInternalContention 	0
scalar MyScenario.node[19].nic.mac1609_4 	totalBusyTime 	0.002321
scalar MyScenario.node[19].veinsmobility 	startTime 	1
scalar MyScenario.node[19].veinsmobility 	totalTime 	137
scalar MyScenario.node[19].veinsmobility 	stopTime 	139
scalar MyScenario.node[19].veinsmobility 	minSpeed 	3.8082597800234e-05
scalar MyScenario.node[19].veinsmobility 	maxSpeed 	13.898795965337
scalar MyScenario.node[19].veinsmobility 	totalDistance 	1366.3650796863
scalar MyScenario.node[19].veinsmobility 	totalCO2Emission 	415.39621496837
scalar MyScenario.node[194].appl 	generatedWSMs 	1
scalar MyScenario.node[194].appl 	receivedWSMs 	1
scalar MyScenario.node[194].appl 	generatedBSMs 	0
scalar MyScenario.node[194].appl 	receivedBSMs 	0
scalar MyScenario.node[194].appl 	generatedWSAs 	0
scalar MyScenario.node[194].appl 	receivedWSAs 	0
scalar MyScenario.node[194].nic.phy80211p 	busyTime 	2.2848484848485e-05
scalar MyScenario.node[194].nic.mac1609_4 	ReceivedUnicastPackets 	0
scalar MyScenario.node[194].nic.mac1609_4 	ReceivedBroadcasts 	1
scalar MyScenario.node[194].nic.mac1609_4 	SentPackets 	1
scalar MyScenario.node[194].nic.mac1609_4 	SNIRLostPackets 	12
scalar MyScenario.node[194].nic.mac1609_4 	RXTXLostPackets 	0
scalar MyScenario.node[194].nic.mac1609_4 	TotalLostPackets 	12
scalar MyScenario.node[194].nic.mac1609_4 	DroppedPacketsInMac 	0
scalar MyScenario.node[194].nic.mac1609_4 	TooLittleTime 	0
scalar MyScenario.node[194].nic.mac1609_4 	TimesIntoBackoff 	1
scalar MyScenario.node[194].nic.mac1609_4 	SlotsBackoff 	2
scalar MyScenario.node[194].nic.mac1609_4 	NumInternalContention 	0
scalar MyScenario.node[194].nic.mac1609_4 	totalBusyTime 	0.001393
scalar MyScenario.node[194].veinsmobility 	startTime 	7
scalar MyScenario.node[194].veinsmobility 	totalTime 	131
scalar MyScenario.node[194].veinsmobility 	stopTime 	139
scalar MyScenario.node[194].veinsmobility 	minSpeed 	0.010477511726115
scalar MyScenario.node[194].veinsmobility 	maxSpeed 	13.874427252845
scalar MyScenario.node[194].veinsmobility 	totalDistance 	1377.0432273906
scalar MyScenario.node[194].veinsmobility 	totalCO2Emission 	438.31333929334
scalar MyScenario.node[60].appl 	generatedWSMs 	1
scalar MyScenario.node[60].appl 	receivedWSMs 	15
scalar MyScenario.node[60].appl 	generatedBSMs 	0
scalar MyScenario.node[60].appl 	receivedBSMs 	0
scalar MyScenario.node[60].appl 	generatedWSAs 	0
scalar MyScenario.node[60].appl 	receivedWSAs 	0
scalar MyScenario.node[60].nic.phy80211p 	busyTime 	3.2e-05
scalar MyScenario.node[60].nic.mac1609_4 	ReceivedUnicastPackets 	0
scalar MyScenario.node[60].nic.mac1609_4 	ReceivedBroadcasts 	15
scalar MyScenario.node[60].nic.mac1609_4 	SentPackets 	1
scalar MyScenario.node[60].nic.mac1609_4 	SNIRLostPackets 	5
scalar MyScenario.node[60].nic.mac1609_4 	RXTXLostPackets 	10
scalar MyScenario.node[60].nic.mac1609_4 	TotalLostPackets 	15
scalar MyScenario.node[60].nic.mac1609_4 	DroppedPacketsInMac 	0
scalar MyScenario.node[60].nic.mac1609_4 	TooLittleTime 	0
scalar MyScenario.node[60].nic.mac1609_4 	TimesIntoBackoff 	1
scalar MyScenario.node[60].nic.mac1609_4 	SlotsBackoff 	0
scalar MyScenario.node[60].nic.mac1609_4 	NumInternalContention 	0
scalar MyScenario.node[60].nic.mac1609_4 	totalBusyTime 	0.004177033025
scalar MyScenario.node[60].veinsmobility 	startTime 	1
scalar MyScenario.node[60].veinsmobility 	totalTime 	144
scalar MyScenario.node[60].veinsmobility 	stopTime 	146
scalar MyScenario.node[60].veinsmobility 	minSpeed 	0.00044443112240125
scalar MyScenario.node[60].veinsmobility 	maxSpeed 	13.88150325031
scalar MyScenario.node[60].veinsmobility 	totalDistance 	1261.974114988
scalar MyScenario.node[60].veinsmobility 	totalCO2Emission 	467.63532411754
