version 2
run General-14-20170829-17:39:33-8100
attr configname General
attr datetime 20170829-17:39:33
attr density 200
attr experiment General
attr inifile omnetpp.ini
attr iterationvars $density=200
attr iterationvars2 "$density=200, $repetition=4"
attr measurement $density=200
attr network com.liborio.pi.MyScenario
attr processid 8100
attr repetition 4
attr replication #4
attr resultdir results
attr runnumber 14
attr seedset 4
param **.coreDebug false
param **.debug false
param *.**.nic.mac1609_4.bitrate 6Mbps
param *.**.nic.mac1609_4.txPower 20mW
param *.**.nic.mac1609_4.useServiceChannel true
param *.**.nic.phy80211p.analogueModels "xmldoc(\"config.xml\")"
param *.**.nic.phy80211p.antenna "xmldoc(\"antenna.xml\", \"/root/Antenna[@id='monopole']\")"
param *.**.nic.phy80211p.decider "xmldoc(\"config.xml\")"
param *.**.nic.phy80211p.sensitivity -84.39dBm
param *.**.nic.phy80211p.thermalNoise -110dBm
param *.**.nic.phy80211p.usePropagationDelay true
param *.**.nic.phy80211p.useThermalNoise true
param *.annotations.draw true
param *.connectionManager.drawMaxIntfDist false
param *.connectionManager.maxInterfDist 2600m
param *.connectionManager.sendDirect true
param *.manager.autoShutdown true
param *.manager.host "\"localhost\""
param *.manager.launchConfig "xmldoc(string(${density = 100, 200, 300, 400})+\"_\"+ string(${repetition})+\".launchd.xml\")"
param *.manager.port 9999
param *.manager.updateInterval 1s
param *.node[*].appl.beaconInterval 1s
param *.node[*].appl.dataOnSch true
param *.node[*].appl.headerLength "80 bit"
param *.node[*].appl.isSource false
param *.node[*].appl.numMsgs 100
param *.node[*].appl.sendBeacons false
param *.node[*].appl.stopTrafficTime 130s
param *.node[*].appl.wsmInterval 3s
param *.node[*].applType "\"Flooding\""
param *.node[*].veinsmobility.x 0
param *.node[*].veinsmobility.y 0
param *.node[*].veinsmobility.z 1.895
param *.node[*].veinsmobilityType.debug true
param *.node[0].appl.isSource true
param *.playgroundSizeX 2500m
param *.playgroundSizeY 2500m
param *.playgroundSizeZ 50m

scalar . 	density 	200
scalar MyScenario.node[74].appl 	generatedWSMs 	0
scalar MyScenario.node[74].appl 	receivedWSMs 	0
scalar MyScenario.node[74].appl 	generatedBSMs 	0
scalar MyScenario.node[74].appl 	receivedBSMs 	0
scalar MyScenario.node[74].appl 	generatedWSAs 	0
scalar MyScenario.node[74].appl 	receivedWSAs 	0
scalar MyScenario.node[74].nic.phy80211p 	busyTime 	4.64e-05
scalar MyScenario.node[74].nic.mac1609_4 	ReceivedUnicastPackets 	0
scalar MyScenario.node[74].nic.mac1609_4 	ReceivedBroadcasts 	0
scalar MyScenario.node[74].nic.mac1609_4 	SentPackets 	0
scalar MyScenario.node[74].nic.mac1609_4 	SNIRLostPackets 	2
scalar MyScenario.node[74].nic.mac1609_4 	RXTXLostPackets 	0
scalar MyScenario.node[74].nic.mac1609_4 	TotalLostPackets 	2
scalar MyScenario.node[74].nic.mac1609_4 	DroppedPacketsInMac 	0
scalar MyScenario.node[74].nic.mac1609_4 	TooLittleTime 	0
scalar MyScenario.node[74].nic.mac1609_4 	TimesIntoBackoff 	0
scalar MyScenario.node[74].nic.mac1609_4 	SlotsBackoff 	0
scalar MyScenario.node[74].nic.mac1609_4 	NumInternalContention 	0
scalar MyScenario.node[74].nic.mac1609_4 	totalBusyTime 	0.000232
scalar MyScenario.node[74].veinsmobility 	startTime 	1
scalar MyScenario.node[74].veinsmobility 	totalTime 	9
scalar MyScenario.node[74].veinsmobility 	stopTime 	11
scalar MyScenario.node[74].veinsmobility 	minSpeed 	2.401066824561
scalar MyScenario.node[74].veinsmobility 	maxSpeed 	13.489272728376
scalar MyScenario.node[74].veinsmobility 	totalDistance 	80.596258369833
scalar MyScenario.node[74].veinsmobility 	totalCO2Emission 	36.302061735223
scalar MyScenario.node[26].appl 	generatedWSMs 	0
scalar MyScenario.node[26].appl 	receivedWSMs 	0
scalar MyScenario.node[26].appl 	generatedBSMs 	0
scalar MyScenario.node[26].appl 	receivedBSMs 	0
scalar MyScenario.node[26].appl 	generatedWSAs 	0
scalar MyScenario.node[26].appl 	receivedWSAs 	0
scalar MyScenario.node[26].nic.phy80211p 	busyTime 	9.28e-05
scalar MyScenario.node[26].nic.mac1609_4 	ReceivedUnicastPackets 	0
scalar MyScenario.node[26].nic.mac1609_4 	ReceivedBroadcasts 	0
scalar MyScenario.node[26].nic.mac1609_4 	SentPackets 	0
scalar MyScenario.node[26].nic.mac1609_4 	SNIRLostPackets 	4
scalar MyScenario.node[26].nic.mac1609_4 	RXTXLostPackets 	0
scalar MyScenario.node[26].nic.mac1609_4 	TotalLostPackets 	4
scalar MyScenario.node[26].nic.mac1609_4 	DroppedPacketsInMac 	0
scalar MyScenario.node[26].nic.mac1609_4 	TooLittleTime 	0
scalar MyScenario.node[26].nic.mac1609_4 	TimesIntoBackoff 	0
scalar MyScenario.node[26].nic.mac1609_4 	SlotsBackoff 	0
scalar MyScenario.node[26].nic.mac1609_4 	NumInternalContention 	0
scalar MyScenario.node[26].nic.mac1609_4 	totalBusyTime 	0.000232
scalar MyScenario.node[26].veinsmobility 	startTime 	1
scalar MyScenario.node[26].veinsmobility 	totalTime 	9
scalar MyScenario.node[26].veinsmobility 	stopTime 	11
scalar MyScenario.node[26].veinsmobility 	minSpeed 	1.7157734554261
scalar MyScenario.node[26].veinsmobility 	maxSpeed 	13.751218565274
scalar MyScenario.node[26].veinsmobility 	totalDistance 	76.840756251058
scalar MyScenario.node[26].veinsmobility 	totalCO2Emission 	40.062848591743
scalar MyScenario.node[48].appl 	generatedWSMs 	0
scalar MyScenario.node[48].appl 	receivedWSMs 	0
scalar MyScenario.node[48].appl 	generatedBSMs 	0
scalar MyScenario.node[48].appl 	receivedBSMs 	0
scalar MyScenario.node[48].appl 	generatedWSAs 	0
scalar MyScenario.node[48].appl 	receivedWSAs 	0
scalar MyScenario.node[48].nic.phy80211p 	busyTime 	0
scalar MyScenario.node[48].nic.mac1609_4 	ReceivedUnicastPackets 	0
scalar MyScenario.node[48].nic.mac1609_4 	ReceivedBroadcasts 	0
scalar MyScenario.node[48].nic.mac1609_4 	SentPackets 	0
scalar MyScenario.node[48].nic.mac1609_4 	SNIRLostPackets 	0
scalar MyScenario.node[48].nic.mac1609_4 	RXTXLostPackets 	0
scalar MyScenario.node[48].nic.mac1609_4 	TotalLostPackets 	0
scalar MyScenario.node[48].nic.mac1609_4 	DroppedPacketsInMac 	0
scalar MyScenario.node[48].nic.mac1609_4 	TooLittleTime 	0
scalar MyScenario.node[48].nic.mac1609_4 	TimesIntoBackoff 	0
scalar MyScenario.node[48].nic.mac1609_4 	SlotsBackoff 	0
scalar MyScenario.node[48].nic.mac1609_4 	NumInternalContention 	0
scalar MyScenario.node[48].nic.mac1609_4 	totalBusyTime 	0
scalar MyScenario.node[48].veinsmobility 	startTime 	1
scalar MyScenario.node[48].veinsmobility 	totalTime 	9
scalar MyScenario.node[48].veinsmobility 	stopTime 	11
scalar MyScenario.node[48].veinsmobility 	minSpeed 	1.8469735027058
scalar MyScenario.node[48].veinsmobility 	maxSpeed 	13.655596141331
scalar MyScenario.node[48].veinsmobility 	totalDistance 	83.502115563652
scalar MyScenario.node[48].veinsmobility 	totalCO2Emission 	38.571236321556
scalar MyScenario.node[178].appl 	generatedWSMs 	0
scalar MyScenario.node[178].appl 	receivedWSMs 	0
scalar MyScenario.node[178].appl 	generatedBSMs 	0
scalar MyScenario.node[178].appl 	receivedBSMs 	0
scalar MyScenario.node[178].appl 	generatedWSAs 	0
scalar MyScenario.node[178].appl 	receivedWSAs 	0
scalar MyScenario.node[178].nic.phy80211p 	busyTime 	0.0001392
scalar MyScenario.node[178].nic.mac1609_4 	ReceivedUnicastPackets 	0
scalar MyScenario.node[178].nic.mac1609_4 	ReceivedBroadcasts 	0
scalar MyScenario.node[178].nic.mac1609_4 	SentPackets 	0
scalar MyScenario.node[178].nic.mac1609_4 	SNIRLostPackets 	6
scalar MyScenario.node[178].nic.mac1609_4 	RXTXLostPackets 	0
scalar MyScenario.node[178].nic.mac1609_4 	TotalLostPackets 	6
scalar MyScenario.node[178].nic.mac1609_4 	DroppedPacketsInMac 	0
scalar MyScenario.node[178].nic.mac1609_4 	TooLittleTime 	0
scalar MyScenario.node[178].nic.mac1609_4 	TimesIntoBackoff 	0
scalar MyScenario.node[178].nic.mac1609_4 	SlotsBackoff 	0
scalar MyScenario.node[178].nic.mac1609_4 	NumInternalContention 	0
scalar MyScenario.node[178].nic.mac1609_4 	totalBusyTime 	0.000232
scalar MyScenario.node[178].veinsmobility 	startTime 	4
scalar MyScenario.node[178].veinsmobility 	totalTime 	9
scalar MyScenario.node[178].veinsmobility 	stopTime 	14
scalar MyScenario.node[178].veinsmobility 	minSpeed 	2.3343343147775
scalar MyScenario.node[178].veinsmobility 	maxSpeed 	13.616629061056
scalar MyScenario.node[178].veinsmobility 	totalDistance 	83.369356026011
scalar MyScenario.node[178].veinsmobility 	totalCO2Emission 	37.329199987102
scalar MyScenario.node[157].appl 	generatedWSMs 	1
scalar MyScenario.node[157].appl 	receivedWSMs 	1
scalar MyScenario.node[157].appl 	generatedBSMs 	0
scalar MyScenario.node[157].appl 	receivedBSMs 	0
scalar MyScenario.node[157].appl 	generatedWSAs 	0
scalar MyScenario.node[157].appl 	receivedWSAs 	0
scalar MyScenario.node[157].nic.phy80211p 	busyTime 	0.000116
scalar MyScenario.node[157].nic.mac1609_4 	ReceivedUnicastPackets 	0
scalar MyScenario.node[157].nic.mac1609_4 	ReceivedBroadcasts 	1
scalar MyScenario.node[157].nic.mac1609_4 	SentPackets 	1
scalar MyScenario.node[157].nic.mac1609_4 	SNIRLostPackets 	8
scalar MyScenario.node[157].nic.mac1609_4 	RXTXLostPackets 	5
scalar MyScenario.node[157].nic.mac1609_4 	TotalLostPackets 	13
scalar MyScenario.node[157].nic.mac1609_4 	DroppedPacketsInMac 	0
scalar MyScenario.node[157].nic.mac1609_4 	TooLittleTime 	0
scalar MyScenario.node[157].nic.mac1609_4 	TimesIntoBackoff 	1
scalar MyScenario.node[157].nic.mac1609_4 	SlotsBackoff 	3
scalar MyScenario.node[157].nic.mac1609_4 	NumInternalContention 	0
scalar MyScenario.node[157].nic.mac1609_4 	totalBusyTime 	0.000697
scalar MyScenario.node[157].veinsmobility 	startTime 	1
scalar MyScenario.node[157].veinsmobility 	totalTime 	17
scalar MyScenario.node[157].veinsmobility 	stopTime 	19
scalar MyScenario.node[157].veinsmobility 	minSpeed 	1.7431896411348
scalar MyScenario.node[157].veinsmobility 	maxSpeed 	13.232012558775
scalar MyScenario.node[157].veinsmobility 	totalDistance 	182.00175353244
scalar MyScenario.node[157].veinsmobility 	totalCO2Emission 	52.557395825794
scalar MyScenario.node[128].appl 	generatedWSMs 	0
scalar MyScenario.node[128].appl 	receivedWSMs 	0
scalar MyScenario.node[128].appl 	generatedBSMs 	0
scalar MyScenario.node[128].appl 	receivedBSMs 	0
scalar MyScenario.node[128].appl 	generatedWSAs 	0
scalar MyScenario.node[128].appl 	receivedWSAs 	0
scalar MyScenario.node[128].nic.phy80211p 	busyTime 	0.00015873684210526
scalar MyScenario.node[128].nic.mac1609_4 	ReceivedUnicastPackets 	0
scalar MyScenario.node[128].nic.mac1609_4 	ReceivedBroadcasts 	0
scalar MyScenario.node[128].nic.mac1609_4 	SentPackets 	0
scalar MyScenario.node[128].nic.mac1609_4 	SNIRLostPackets 	13
scalar MyScenario.node[128].nic.mac1609_4 	RXTXLostPackets 	0
scalar MyScenario.node[128].nic.mac1609_4 	TotalLostPackets 	13
scalar MyScenario.node[128].nic.mac1609_4 	DroppedPacketsInMac 	0
scalar MyScenario.node[128].nic.mac1609_4 	TooLittleTime 	0
scalar MyScenario.node[128].nic.mac1609_4 	TimesIntoBackoff 	0
scalar MyScenario.node[128].nic.mac1609_4 	SlotsBackoff 	0
scalar MyScenario.node[128].nic.mac1609_4 	NumInternalContention 	0
scalar MyScenario.node[128].nic.mac1609_4 	totalBusyTime 	0.000928
scalar MyScenario.node[128].veinsmobility 	startTime 	1
scalar MyScenario.node[128].veinsmobility 	totalTime 	18
scalar MyScenario.node[128].veinsmobility 	stopTime 	20
scalar MyScenario.node[128].veinsmobility 	minSpeed 	2.1550689851632
scalar MyScenario.node[128].veinsmobility 	maxSpeed 	13.301621682942
scalar MyScenario.node[128].veinsmobility 	totalDistance 	173.60227790967
scalar MyScenario.node[128].veinsmobility 	totalCO2Emission 	68.062464841002
scalar MyScenario.node[35].appl 	generatedWSMs 	1
scalar MyScenario.node[35].appl 	receivedWSMs 	1
scalar MyScenario.node[35].appl 	generatedBSMs 	0
scalar MyScenario.node[35].appl 	receivedBSMs 	0
scalar MyScenario.node[35].appl 	generatedWSAs 	0
scalar MyScenario.node[35].appl 	receivedWSAs 	0
scalar MyScenario.node[35].nic.phy80211p 	busyTime 	0.0001044
scalar MyScenario.node[35].nic.mac1609_4 	ReceivedUnicastPackets 	0
scalar MyScenario.node[35].nic.mac1609_4 	ReceivedBroadcasts 	1
scalar MyScenario.node[35].nic.mac1609_4 	SentPackets 	1
scalar MyScenario.node[35].nic.mac1609_4 	SNIRLostPackets 	8
scalar MyScenario.node[35].nic.mac1609_4 	RXTXLostPackets 	5
scalar MyScenario.node[35].nic.mac1609_4 	TotalLostPackets 	13
scalar MyScenario.node[35].nic.mac1609_4 	DroppedPacketsInMac 	0
scalar MyScenario.node[35].nic.mac1609_4 	TooLittleTime 	0
scalar MyScenario.node[35].nic.mac1609_4 	TimesIntoBackoff 	1
scalar MyScenario.node[35].nic.mac1609_4 	SlotsBackoff 	0
scalar MyScenario.node[35].nic.mac1609_4 	NumInternalContention 	0
scalar MyScenario.node[35].nic.mac1609_4 	totalBusyTime 	0.000697048821
scalar MyScenario.node[35].veinsmobility 	startTime 	1
scalar MyScenario.node[35].veinsmobility 	totalTime 	19
scalar MyScenario.node[35].veinsmobility 	stopTime 	21
scalar MyScenario.node[35].veinsmobility 	minSpeed 	1.5948854350485
scalar MyScenario.node[35].veinsmobility 	maxSpeed 	13.668320810143
scalar MyScenario.node[35].veinsmobility 	totalDistance 	180.67631022915
scalar MyScenario.node[35].veinsmobility 	totalCO2Emission 	68.108197712087
scalar MyScenario.node[147].appl 	generatedWSMs 	0
scalar MyScenario.node[147].appl 	receivedWSMs 	0
scalar MyScenario.node[147].appl 	generatedBSMs 	0
scalar MyScenario.node[147].appl 	receivedBSMs 	0
scalar MyScenario.node[147].appl 	generatedWSAs 	0
scalar MyScenario.node[147].appl 	receivedWSAs 	0
scalar MyScenario.node[147].nic.phy80211p 	busyTime 	1.7846153846154e-05
scalar MyScenario.node[147].nic.mac1609_4 	ReceivedUnicastPackets 	0
scalar MyScenario.node[147].nic.mac1609_4 	ReceivedBroadcasts 	0
scalar MyScenario.node[147].nic.mac1609_4 	SentPackets 	0
scalar MyScenario.node[147].nic.mac1609_4 	SNIRLostPackets 	2
scalar MyScenario.node[147].nic.mac1609_4 	RXTXLostPackets 	0
scalar MyScenario.node[147].nic.mac1609_4 	TotalLostPackets 	2
scalar MyScenario.node[147].nic.mac1609_4 	DroppedPacketsInMac 	0
scalar MyScenario.node[147].nic.mac1609_4 	TooLittleTime 	0
scalar MyScenario.node[147].nic.mac1609_4 	TimesIntoBackoff 	0
scalar MyScenario.node[147].nic.mac1609_4 	SlotsBackoff 	0
scalar MyScenario.node[147].nic.mac1609_4 	NumInternalContention 	0
scalar MyScenario.node[147].nic.mac1609_4 	totalBusyTime 	0.000232
scalar MyScenario.node[147].veinsmobility 	startTime 	1
scalar MyScenario.node[147].veinsmobility 	totalTime 	25
scalar MyScenario.node[147].veinsmobility 	stopTime 	27
scalar MyScenario.node[147].veinsmobility 	minSpeed 	2.311407726421
scalar MyScenario.node[147].veinsmobility 	maxSpeed 	13.734165276051
scalar MyScenario.node[147].veinsmobility 	totalDistance 	271.66621934384
scalar MyScenario.node[147].veinsmobility 	totalCO2Emission 	83.022354675769
scalar MyScenario.node[91].appl 	generatedWSMs 	0
scalar MyScenario.node[91].appl 	receivedWSMs 	0
scalar MyScenario.node[91].appl 	generatedBSMs 	0
scalar MyScenario.node[91].appl 	receivedBSMs 	0
scalar MyScenario.node[91].appl 	generatedWSAs 	0
scalar MyScenario.node[91].appl 	receivedWSAs 	0
scalar MyScenario.node[91].nic.phy80211p 	busyTime 	0
scalar MyScenario.node[91].nic.mac1609_4 	ReceivedUnicastPackets 	0
scalar MyScenario.node[91].nic.mac1609_4 	ReceivedBroadcasts 	0
scalar MyScenario.node[91].nic.mac1609_4 	SentPackets 	0
scalar MyScenario.node[91].nic.mac1609_4 	SNIRLostPackets 	0
scalar MyScenario.node[91].nic.mac1609_4 	RXTXLostPackets 	0
scalar MyScenario.node[91].nic.mac1609_4 	TotalLostPackets 	0
scalar MyScenario.node[91].nic.mac1609_4 	DroppedPacketsInMac 	0
scalar MyScenario.node[91].nic.mac1609_4 	TooLittleTime 	0
scalar MyScenario.node[91].nic.mac1609_4 	TimesIntoBackoff 	0
scalar MyScenario.node[91].nic.mac1609_4 	SlotsBackoff 	0
scalar MyScenario.node[91].nic.mac1609_4 	NumInternalContention 	0
scalar MyScenario.node[91].nic.mac1609_4 	totalBusyTime 	0
scalar MyScenario.node[91].veinsmobility 	startTime 	1
scalar MyScenario.node[91].veinsmobility 	totalTime 	25
scalar MyScenario.node[91].veinsmobility 	stopTime 	27
scalar MyScenario.node[91].veinsmobility 	minSpeed 	1.4601510325447
scalar MyScenario.node[91].veinsmobility 	maxSpeed 	13.82881009134
scalar MyScenario.node[91].veinsmobility 	totalDistance 	271.01495737858
scalar MyScenario.node[91].veinsmobility 	totalCO2Emission 	84.919802980993
scalar MyScenario.node[81].appl 	generatedWSMs 	1
scalar MyScenario.node[81].appl 	receivedWSMs 	5
scalar MyScenario.node[81].appl 	generatedBSMs 	0
scalar MyScenario.node[81].appl 	receivedBSMs 	0
scalar MyScenario.node[81].appl 	generatedWSAs 	0
scalar MyScenario.node[81].appl 	receivedWSAs 	0
scalar MyScenario.node[81].nic.phy80211p 	busyTime 	8.5925925925926e-05
scalar MyScenario.node[81].nic.mac1609_4 	ReceivedUnicastPackets 	0
scalar MyScenario.node[81].nic.mac1609_4 	ReceivedBroadcasts 	5
scalar MyScenario.node[81].nic.mac1609_4 	SentPackets 	1
scalar MyScenario.node[81].nic.mac1609_4 	SNIRLostPackets 	5
scalar MyScenario.node[81].nic.mac1609_4 	RXTXLostPackets 	10
scalar MyScenario.node[81].nic.mac1609_4 	TotalLostPackets 	15
scalar MyScenario.node[81].nic.mac1609_4 	DroppedPacketsInMac 	0
scalar MyScenario.node[81].nic.mac1609_4 	TooLittleTime 	0
scalar MyScenario.node[81].nic.mac1609_4 	TimesIntoBackoff 	1
scalar MyScenario.node[81].nic.mac1609_4 	SlotsBackoff 	2
scalar MyScenario.node[81].nic.mac1609_4 	NumInternalContention 	0
scalar MyScenario.node[81].nic.mac1609_4 	totalBusyTime 	0.001857025648
scalar MyScenario.node[81].veinsmobility 	startTime 	1
scalar MyScenario.node[81].veinsmobility 	totalTime 	26
scalar MyScenario.node[81].veinsmobility 	stopTime 	28
scalar MyScenario.node[81].veinsmobility 	minSpeed 	1.7490464502713
scalar MyScenario.node[81].veinsmobility 	maxSpeed 	13.65909488597
scalar MyScenario.node[81].veinsmobility 	totalDistance 	277.23940339035
scalar MyScenario.node[81].veinsmobility 	totalCO2Emission 	90.912141660584
scalar MyScenario.node[181].appl 	generatedWSMs 	0
scalar MyScenario.node[181].appl 	receivedWSMs 	0
scalar MyScenario.node[181].appl 	generatedBSMs 	0
scalar MyScenario.node[181].appl 	receivedBSMs 	0
scalar MyScenario.node[181].appl 	generatedWSAs 	0
scalar MyScenario.node[181].appl 	receivedWSAs 	0
scalar MyScenario.node[181].nic.phy80211p 	busyTime 	0
scalar MyScenario.node[181].nic.mac1609_4 	ReceivedUnicastPackets 	0
scalar MyScenario.node[181].nic.mac1609_4 	ReceivedBroadcasts 	0
scalar MyScenario.node[181].nic.mac1609_4 	SentPackets 	0
scalar MyScenario.node[181].nic.mac1609_4 	SNIRLostPackets 	0
scalar MyScenario.node[181].nic.mac1609_4 	RXTXLostPackets 	0
scalar MyScenario.node[181].nic.mac1609_4 	TotalLostPackets 	0
scalar MyScenario.node[181].nic.mac1609_4 	DroppedPacketsInMac 	0
scalar MyScenario.node[181].nic.mac1609_4 	TooLittleTime 	0
scalar MyScenario.node[181].nic.mac1609_4 	TimesIntoBackoff 	0
scalar MyScenario.node[181].nic.mac1609_4 	SlotsBackoff 	0
scalar MyScenario.node[181].nic.mac1609_4 	NumInternalContention 	0
scalar MyScenario.node[181].nic.mac1609_4 	totalBusyTime 	0
scalar MyScenario.node[181].veinsmobility 	startTime 	4
scalar MyScenario.node[181].veinsmobility 	totalTime 	25
scalar MyScenario.node[181].veinsmobility 	stopTime 	30
scalar MyScenario.node[181].veinsmobility 	minSpeed 	1.4955998607678
scalar MyScenario.node[181].veinsmobility 	maxSpeed 	13.896031957236
scalar MyScenario.node[181].veinsmobility 	totalDistance 	274.58803090629
scalar MyScenario.node[181].veinsmobility 	totalCO2Emission 	85.710311447266
scalar MyScenario.node[112].appl 	generatedWSMs 	1
scalar MyScenario.node[112].appl 	receivedWSMs 	2
scalar MyScenario.node[112].appl 	generatedBSMs 	0
scalar MyScenario.node[112].appl 	receivedBSMs 	0
scalar MyScenario.node[112].appl 	generatedWSAs 	0
scalar MyScenario.node[112].appl 	receivedWSAs 	0
scalar MyScenario.node[112].nic.phy80211p 	busyTime 	9.425e-05
scalar MyScenario.node[112].nic.mac1609_4 	ReceivedUnicastPackets 	0
scalar MyScenario.node[112].nic.mac1609_4 	ReceivedBroadcasts 	2
scalar MyScenario.node[112].nic.mac1609_4 	SentPackets 	1
scalar MyScenario.node[112].nic.mac1609_4 	SNIRLostPackets 	11
scalar MyScenario.node[112].nic.mac1609_4 	RXTXLostPackets 	2
scalar MyScenario.node[112].nic.mac1609_4 	TotalLostPackets 	13
scalar MyScenario.node[112].nic.mac1609_4 	DroppedPacketsInMac 	0
scalar MyScenario.node[112].nic.mac1609_4 	TooLittleTime 	0
scalar MyScenario.node[112].nic.mac1609_4 	TimesIntoBackoff 	1
scalar MyScenario.node[112].nic.mac1609_4 	SlotsBackoff 	0
scalar MyScenario.node[112].nic.mac1609_4 	NumInternalContention 	0
scalar MyScenario.node[112].nic.mac1609_4 	totalBusyTime 	0.001393
scalar MyScenario.node[112].veinsmobility 	startTime 	1
scalar MyScenario.node[112].veinsmobility 	totalTime 	31
scalar MyScenario.node[112].veinsmobility 	stopTime 	33
scalar MyScenario.node[112].veinsmobility 	minSpeed 	2.2098804265726
scalar MyScenario.node[112].veinsmobility 	maxSpeed 	13.868906406523
scalar MyScenario.node[112].veinsmobility 	totalDistance 	366.76313496342
scalar MyScenario.node[112].veinsmobility 	totalCO2Emission 	88.296882513502
scalar MyScenario.node[201].appl 	generatedWSMs 	0
scalar MyScenario.node[201].appl 	receivedWSMs 	0
scalar MyScenario.node[201].appl 	generatedBSMs 	0
scalar MyScenario.node[201].appl 	receivedBSMs 	0
scalar MyScenario.node[201].appl 	generatedWSAs 	0
scalar MyScenario.node[201].appl 	receivedWSAs 	0
scalar MyScenario.node[201].nic.phy80211p 	busyTime 	4.2181818181818e-05
scalar MyScenario.node[201].nic.mac1609_4 	ReceivedUnicastPackets 	0
scalar MyScenario.node[201].nic.mac1609_4 	ReceivedBroadcasts 	0
scalar MyScenario.node[201].nic.mac1609_4 	SentPackets 	0
scalar MyScenario.node[201].nic.mac1609_4 	SNIRLostPackets 	4
scalar MyScenario.node[201].nic.mac1609_4 	RXTXLostPackets 	0
scalar MyScenario.node[201].nic.mac1609_4 	TotalLostPackets 	4
scalar MyScenario.node[201].nic.mac1609_4 	DroppedPacketsInMac 	0
scalar MyScenario.node[201].nic.mac1609_4 	TooLittleTime 	0
scalar MyScenario.node[201].nic.mac1609_4 	TimesIntoBackoff 	0
scalar MyScenario.node[201].nic.mac1609_4 	SlotsBackoff 	0
scalar MyScenario.node[201].nic.mac1609_4 	NumInternalContention 	0
scalar MyScenario.node[201].nic.mac1609_4 	totalBusyTime 	0.000232
scalar MyScenario.node[201].veinsmobility 	startTime 	11
scalar MyScenario.node[201].veinsmobility 	totalTime 	21
scalar MyScenario.node[201].veinsmobility 	stopTime 	33
scalar MyScenario.node[201].veinsmobility 	minSpeed 	12.685178772477
scalar MyScenario.node[201].veinsmobility 	maxSpeed 	13.70399423195
scalar MyScenario.node[201].veinsmobility 	totalDistance 	277.64132691484
scalar MyScenario.node[201].veinsmobility 	totalCO2Emission 	42.978943201557
scalar MyScenario.node[156].appl 	generatedWSMs 	0
scalar MyScenario.node[156].appl 	receivedWSMs 	0
scalar MyScenario.node[156].appl 	generatedBSMs 	0
scalar MyScenario.node[156].appl 	receivedBSMs 	0
scalar MyScenario.node[156].appl 	generatedWSAs 	0
scalar MyScenario.node[156].appl 	receivedWSAs 	0
scalar MyScenario.node[156].nic.phy80211p 	busyTime 	0
scalar MyScenario.node[156].nic.mac1609_4 	ReceivedUnicastPackets 	0
scalar MyScenario.node[156].nic.mac1609_4 	ReceivedBroadcasts 	0
scalar MyScenario.node[156].nic.mac1609_4 	SentPackets 	0
scalar MyScenario.node[156].nic.mac1609_4 	SNIRLostPackets 	0
scalar MyScenario.node[156].nic.mac1609_4 	RXTXLostPackets 	0
scalar MyScenario.node[156].nic.mac1609_4 	TotalLostPackets 	0
scalar MyScenario.node[156].nic.mac1609_4 	DroppedPacketsInMac 	0
scalar MyScenario.node[156].nic.mac1609_4 	TooLittleTime 	0
scalar MyScenario.node[156].nic.mac1609_4 	TimesIntoBackoff 	0
scalar MyScenario.node[156].nic.mac1609_4 	SlotsBackoff 	0
scalar MyScenario.node[156].nic.mac1609_4 	NumInternalContention 	0
scalar MyScenario.node[156].nic.mac1609_4 	totalBusyTime 	0
scalar MyScenario.node[156].veinsmobility 	startTime 	1
scalar MyScenario.node[156].veinsmobility 	totalTime 	33
scalar MyScenario.node[156].veinsmobility 	stopTime 	35
scalar MyScenario.node[156].veinsmobility 	minSpeed 	1.8071817693999
scalar MyScenario.node[156].veinsmobility 	maxSpeed 	13.8837944492
scalar MyScenario.node[156].veinsmobility 	totalDistance 	374.98970123249
scalar MyScenario.node[156].veinsmobility 	totalCO2Emission 	106.73451849225
scalar MyScenario.node[36].appl 	generatedWSMs 	0
scalar MyScenario.node[36].appl 	receivedWSMs 	0
scalar MyScenario.node[36].appl 	generatedBSMs 	0
scalar MyScenario.node[36].appl 	receivedBSMs 	0
scalar MyScenario.node[36].appl 	generatedWSAs 	0
scalar MyScenario.node[36].appl 	receivedWSAs 	0
scalar MyScenario.node[36].nic.phy80211p 	busyTime 	1.3647058823529e-05
scalar MyScenario.node[36].nic.mac1609_4 	ReceivedUnicastPackets 	0
scalar MyScenario.node[36].nic.mac1609_4 	ReceivedBroadcasts 	0
scalar MyScenario.node[36].nic.mac1609_4 	SentPackets 	0
scalar MyScenario.node[36].nic.mac1609_4 	SNIRLostPackets 	2
scalar MyScenario.node[36].nic.mac1609_4 	RXTXLostPackets 	0
scalar MyScenario.node[36].nic.mac1609_4 	TotalLostPackets 	2
scalar MyScenario.node[36].nic.mac1609_4 	DroppedPacketsInMac 	0
scalar MyScenario.node[36].nic.mac1609_4 	TooLittleTime 	0
scalar MyScenario.node[36].nic.mac1609_4 	TimesIntoBackoff 	0
scalar MyScenario.node[36].nic.mac1609_4 	SlotsBackoff 	0
scalar MyScenario.node[36].nic.mac1609_4 	NumInternalContention 	0
scalar MyScenario.node[36].nic.mac1609_4 	totalBusyTime 	0.000232
scalar MyScenario.node[36].veinsmobility 	startTime 	1
scalar MyScenario.node[36].veinsmobility 	totalTime 	33
scalar MyScenario.node[36].veinsmobility 	stopTime 	35
scalar MyScenario.node[36].veinsmobility 	minSpeed 	1.7668661569245
scalar MyScenario.node[36].veinsmobility 	maxSpeed 	13.746382264816
scalar MyScenario.node[36].veinsmobility 	totalDistance 	374.4482958938
scalar MyScenario.node[36].veinsmobility 	totalCO2Emission 	103.43046355765
scalar MyScenario.node[186].appl 	generatedWSMs 	0
scalar MyScenario.node[186].appl 	receivedWSMs 	0
scalar MyScenario.node[186].appl 	generatedBSMs 	0
scalar MyScenario.node[186].appl 	receivedBSMs 	0
scalar MyScenario.node[186].appl 	generatedWSAs 	0
scalar MyScenario.node[186].appl 	receivedWSAs 	0
scalar MyScenario.node[186].nic.phy80211p 	busyTime 	1.45e-05
scalar MyScenario.node[186].nic.mac1609_4 	ReceivedUnicastPackets 	0
scalar MyScenario.node[186].nic.mac1609_4 	ReceivedBroadcasts 	0
scalar MyScenario.node[186].nic.mac1609_4 	SentPackets 	0
scalar MyScenario.node[186].nic.mac1609_4 	SNIRLostPackets 	2
scalar MyScenario.node[186].nic.mac1609_4 	RXTXLostPackets 	0
scalar MyScenario.node[186].nic.mac1609_4 	TotalLostPackets 	2
scalar MyScenario.node[186].nic.mac1609_4 	DroppedPacketsInMac 	0
scalar MyScenario.node[186].nic.mac1609_4 	TooLittleTime 	0
scalar MyScenario.node[186].nic.mac1609_4 	TimesIntoBackoff 	0
scalar MyScenario.node[186].nic.mac1609_4 	SlotsBackoff 	0
scalar MyScenario.node[186].nic.mac1609_4 	NumInternalContention 	0
scalar MyScenario.node[186].nic.mac1609_4 	totalBusyTime 	0.000232
scalar MyScenario.node[186].veinsmobility 	startTime 	4
scalar MyScenario.node[186].veinsmobility 	totalTime 	31
scalar MyScenario.node[186].veinsmobility 	stopTime 	36
scalar MyScenario.node[186].veinsmobility 	minSpeed 	2.4081958094612
scalar MyScenario.node[186].veinsmobility 	maxSpeed 	13.889038868318
scalar MyScenario.node[186].veinsmobility 	totalDistance 	368.37059318856
scalar MyScenario.node[186].veinsmobility 	totalCO2Emission 	88.964803312883
scalar MyScenario.node[87].appl 	generatedWSMs 	1
scalar MyScenario.node[87].appl 	receivedWSMs 	2
scalar MyScenario.node[87].appl 	generatedBSMs 	0
scalar MyScenario.node[87].appl 	receivedBSMs 	0
scalar MyScenario.node[87].appl 	generatedWSAs 	0
scalar MyScenario.node[87].appl 	receivedWSAs 	0
scalar MyScenario.node[87].nic.phy80211p 	busyTime 	4.5111111111111e-05
scalar MyScenario.node[87].nic.mac1609_4 	ReceivedUnicastPackets 	0
scalar MyScenario.node[87].nic.mac1609_4 	ReceivedBroadcasts 	2
scalar MyScenario.node[87].nic.mac1609_4 	SentPackets 	1
scalar MyScenario.node[87].nic.mac1609_4 	SNIRLostPackets 	5
scalar MyScenario.node[87].nic.mac1609_4 	RXTXLostPackets 	6
scalar MyScenario.node[87].nic.mac1609_4 	TotalLostPackets 	11
scalar MyScenario.node[87].nic.mac1609_4 	DroppedPacketsInMac 	0
scalar MyScenario.node[87].nic.mac1609_4 	TooLittleTime 	0
scalar MyScenario.node[87].nic.mac1609_4 	TimesIntoBackoff 	1
scalar MyScenario.node[87].nic.mac1609_4 	SlotsBackoff 	1
scalar MyScenario.node[87].nic.mac1609_4 	NumInternalContention 	0
scalar MyScenario.node[87].nic.mac1609_4 	totalBusyTime 	0.001161093476
scalar MyScenario.node[87].veinsmobility 	startTime 	1
scalar MyScenario.node[87].veinsmobility 	totalTime 	35
scalar MyScenario.node[87].veinsmobility 	stopTime 	37
scalar MyScenario.node[87].veinsmobility 	minSpeed 	0.61015192093979
scalar MyScenario.node[87].veinsmobility 	maxSpeed 	13.889123248495
scalar MyScenario.node[87].veinsmobility 	totalDistance 	369.32559018029
scalar MyScenario.node[87].veinsmobility 	totalCO2Emission 	110.14991235292
scalar MyScenario.node[40].appl 	generatedWSMs 	0
scalar MyScenario.node[40].appl 	receivedWSMs 	0
scalar MyScenario.node[40].appl 	generatedBSMs 	0
scalar MyScenario.node[40].appl 	receivedBSMs 	0
scalar MyScenario.node[40].appl 	generatedWSAs 	0
scalar MyScenario.node[40].appl 	receivedWSAs 	0
scalar MyScenario.node[40].nic.phy80211p 	busyTime 	4.3891891891892e-05
scalar MyScenario.node[40].nic.mac1609_4 	ReceivedUnicastPackets 	0
scalar MyScenario.node[40].nic.mac1609_4 	ReceivedBroadcasts 	0
scalar MyScenario.node[40].nic.mac1609_4 	SentPackets 	0
scalar MyScenario.node[40].nic.mac1609_4 	SNIRLostPackets 	7
scalar MyScenario.node[40].nic.mac1609_4 	RXTXLostPackets 	0
scalar MyScenario.node[40].nic.mac1609_4 	TotalLostPackets 	7
scalar MyScenario.node[40].nic.mac1609_4 	DroppedPacketsInMac 	0
scalar MyScenario.node[40].nic.mac1609_4 	TooLittleTime 	0
scalar MyScenario.node[40].nic.mac1609_4 	TimesIntoBackoff 	0
scalar MyScenario.node[40].nic.mac1609_4 	SlotsBackoff 	0
scalar MyScenario.node[40].nic.mac1609_4 	NumInternalContention 	0
scalar MyScenario.node[40].nic.mac1609_4 	totalBusyTime 	0.000232
scalar MyScenario.node[40].veinsmobility 	startTime 	1
scalar MyScenario.node[40].veinsmobility 	totalTime 	36
scalar MyScenario.node[40].veinsmobility 	stopTime 	38
scalar MyScenario.node[40].veinsmobility 	minSpeed 	1.0687745404769
scalar MyScenario.node[40].veinsmobility 	maxSpeed 	13.89423364643
scalar MyScenario.node[40].veinsmobility 	totalDistance 	373.73455866205
scalar MyScenario.node[40].veinsmobility 	totalCO2Emission 	124.54021914736
scalar MyScenario.node[67].appl 	generatedWSMs 	1
scalar MyScenario.node[67].appl 	receivedWSMs 	1
scalar MyScenario.node[67].appl 	generatedBSMs 	0
scalar MyScenario.node[67].appl 	receivedBSMs 	0
scalar MyScenario.node[67].appl 	generatedWSAs 	0
scalar MyScenario.node[67].appl 	receivedWSAs 	0
scalar MyScenario.node[67].nic.phy80211p 	busyTime 	4.06e-05
scalar MyScenario.node[67].nic.mac1609_4 	ReceivedUnicastPackets 	0
scalar MyScenario.node[67].nic.mac1609_4 	ReceivedBroadcasts 	1
scalar MyScenario.node[67].nic.mac1609_4 	SentPackets 	1
scalar MyScenario.node[67].nic.mac1609_4 	SNIRLostPackets 	6
scalar MyScenario.node[67].nic.mac1609_4 	RXTXLostPackets 	6
scalar MyScenario.node[67].nic.mac1609_4 	TotalLostPackets 	12
scalar MyScenario.node[67].nic.mac1609_4 	DroppedPacketsInMac 	0
scalar MyScenario.node[67].nic.mac1609_4 	TooLittleTime 	0
scalar MyScenario.node[67].nic.mac1609_4 	TimesIntoBackoff 	1
scalar MyScenario.node[67].nic.mac1609_4 	SlotsBackoff 	1
scalar MyScenario.node[67].nic.mac1609_4 	NumInternalContention 	0
scalar MyScenario.node[67].nic.mac1609_4 	totalBusyTime 	0.001393069178
scalar MyScenario.node[67].veinsmobility 	startTime 	1
scalar MyScenario.node[67].veinsmobility 	totalTime 	39
scalar MyScenario.node[67].veinsmobility 	stopTime 	41
scalar MyScenario.node[67].veinsmobility 	minSpeed 	2.1353340228088
scalar MyScenario.node[67].veinsmobility 	maxSpeed 	13.837279315013
scalar MyScenario.node[67].veinsmobility 	totalDistance 	466.43669545856
scalar MyScenario.node[67].veinsmobility 	totalCO2Emission 	115.24549691372
scalar MyScenario.node[180].appl 	generatedWSMs 	0
scalar MyScenario.node[180].appl 	receivedWSMs 	0
scalar MyScenario.node[180].appl 	generatedBSMs 	0
scalar MyScenario.node[180].appl 	receivedBSMs 	0
scalar MyScenario.node[180].appl 	generatedWSAs 	0
scalar MyScenario.node[180].appl 	receivedWSAs 	0
scalar MyScenario.node[180].nic.phy80211p 	busyTime 	0
scalar MyScenario.node[180].nic.mac1609_4 	ReceivedUnicastPackets 	0
scalar MyScenario.node[180].nic.mac1609_4 	ReceivedBroadcasts 	0
scalar MyScenario.node[180].nic.mac1609_4 	SentPackets 	0
scalar MyScenario.node[180].nic.mac1609_4 	SNIRLostPackets 	0
scalar MyScenario.node[180].nic.mac1609_4 	RXTXLostPackets 	0
scalar MyScenario.node[180].nic.mac1609_4 	TotalLostPackets 	0
scalar MyScenario.node[180].nic.mac1609_4 	DroppedPacketsInMac 	0
scalar MyScenario.node[180].nic.mac1609_4 	TooLittleTime 	0
scalar MyScenario.node[180].nic.mac1609_4 	TimesIntoBackoff 	0
scalar MyScenario.node[180].nic.mac1609_4 	SlotsBackoff 	0
scalar MyScenario.node[180].nic.mac1609_4 	NumInternalContention 	0
scalar MyScenario.node[180].nic.mac1609_4 	totalBusyTime 	0
scalar MyScenario.node[180].veinsmobility 	startTime 	4
scalar MyScenario.node[180].veinsmobility 	totalTime 	36
scalar MyScenario.node[180].veinsmobility 	stopTime 	41
scalar MyScenario.node[180].veinsmobility 	minSpeed 	4.6043731110939e-05
scalar MyScenario.node[180].veinsmobility 	maxSpeed 	13.802939400682
scalar MyScenario.node[180].veinsmobility 	totalDistance 	272.71085424972
scalar MyScenario.node[180].veinsmobility 	totalCO2Emission 	123.3033194376
scalar MyScenario.node[3].appl 	generatedWSMs 	1
scalar MyScenario.node[3].appl 	receivedWSMs 	3
scalar MyScenario.node[3].appl 	generatedBSMs 	0
scalar MyScenario.node[3].appl 	receivedBSMs 	0
scalar MyScenario.node[3].appl 	generatedWSAs 	0
scalar MyScenario.node[3].appl 	receivedWSAs 	0
scalar MyScenario.node[3].nic.phy80211p 	busyTime 	9.28e-05
scalar MyScenario.node[3].nic.mac1609_4 	ReceivedUnicastPackets 	0
scalar MyScenario.node[3].nic.mac1609_4 	ReceivedBroadcasts 	3
scalar MyScenario.node[3].nic.mac1609_4 	SentPackets 	1
scalar MyScenario.node[3].nic.mac1609_4 	SNIRLostPackets 	13
scalar MyScenario.node[3].nic.mac1609_4 	RXTXLostPackets 	10
scalar MyScenario.node[3].nic.mac1609_4 	TotalLostPackets 	23
scalar MyScenario.node[3].nic.mac1609_4 	DroppedPacketsInMac 	0
scalar MyScenario.node[3].nic.mac1609_4 	TooLittleTime 	0
scalar MyScenario.node[3].nic.mac1609_4 	TimesIntoBackoff 	1
scalar MyScenario.node[3].nic.mac1609_4 	SlotsBackoff 	1
scalar MyScenario.node[3].nic.mac1609_4 	NumInternalContention 	0
scalar MyScenario.node[3].nic.mac1609_4 	totalBusyTime 	0.001857
scalar MyScenario.node[3].veinsmobility 	startTime 	1
scalar MyScenario.node[3].veinsmobility 	totalTime 	39
scalar MyScenario.node[3].veinsmobility 	stopTime 	41
scalar MyScenario.node[3].veinsmobility 	minSpeed 	0.31883240281525
scalar MyScenario.node[3].veinsmobility 	maxSpeed 	13.890082627651
scalar MyScenario.node[3].veinsmobility 	totalDistance 	374.58280374346
scalar MyScenario.node[3].veinsmobility 	totalCO2Emission 	125.30013661157
scalar MyScenario.node[133].appl 	generatedWSMs 	0
scalar MyScenario.node[133].appl 	receivedWSMs 	0
scalar MyScenario.node[133].appl 	generatedBSMs 	0
scalar MyScenario.node[133].appl 	receivedBSMs 	0
scalar MyScenario.node[133].appl 	generatedWSAs 	0
scalar MyScenario.node[133].appl 	receivedWSAs 	0
scalar MyScenario.node[133].nic.phy80211p 	busyTime 	4.5268292682927e-05
scalar MyScenario.node[133].nic.mac1609_4 	ReceivedUnicastPackets 	0
scalar MyScenario.node[133].nic.mac1609_4 	ReceivedBroadcasts 	0
scalar MyScenario.node[133].nic.mac1609_4 	SentPackets 	0
scalar MyScenario.node[133].nic.mac1609_4 	SNIRLostPackets 	8
scalar MyScenario.node[133].nic.mac1609_4 	RXTXLostPackets 	0
scalar MyScenario.node[133].nic.mac1609_4 	TotalLostPackets 	8
scalar MyScenario.node[133].nic.mac1609_4 	DroppedPacketsInMac 	0
scalar MyScenario.node[133].nic.mac1609_4 	TooLittleTime 	0
scalar MyScenario.node[133].nic.mac1609_4 	TimesIntoBackoff 	0
scalar MyScenario.node[133].nic.mac1609_4 	SlotsBackoff 	0
scalar MyScenario.node[133].nic.mac1609_4 	NumInternalContention 	0
scalar MyScenario.node[133].nic.mac1609_4 	totalBusyTime 	0.000464
scalar MyScenario.node[133].veinsmobility 	startTime 	1
scalar MyScenario.node[133].veinsmobility 	totalTime 	40
scalar MyScenario.node[133].veinsmobility 	stopTime 	42
scalar MyScenario.node[133].veinsmobility 	minSpeed 	1.6451627025381
scalar MyScenario.node[133].veinsmobility 	maxSpeed 	13.877393687773
scalar MyScenario.node[133].veinsmobility 	totalDistance 	474.5800362023
scalar MyScenario.node[133].veinsmobility 	totalCO2Emission 	112.57667622613
scalar MyScenario.node[60].appl 	generatedWSMs 	0
scalar MyScenario.node[60].appl 	receivedWSMs 	0
scalar MyScenario.node[60].appl 	generatedBSMs 	0
scalar MyScenario.node[60].appl 	receivedBSMs 	0
scalar MyScenario.node[60].appl 	generatedWSAs 	0
scalar MyScenario.node[60].appl 	receivedWSAs 	0
scalar MyScenario.node[60].nic.phy80211p 	busyTime 	5.5238095238095e-05
scalar MyScenario.node[60].nic.mac1609_4 	ReceivedUnicastPackets 	0
scalar MyScenario.node[60].nic.mac1609_4 	ReceivedBroadcasts 	0
scalar MyScenario.node[60].nic.mac1609_4 	SentPackets 	0
scalar MyScenario.node[60].nic.mac1609_4 	SNIRLostPackets 	10
scalar MyScenario.node[60].nic.mac1609_4 	RXTXLostPackets 	0
scalar MyScenario.node[60].nic.mac1609_4 	TotalLostPackets 	10
scalar MyScenario.node[60].nic.mac1609_4 	DroppedPacketsInMac 	0
scalar MyScenario.node[60].nic.mac1609_4 	TooLittleTime 	0
scalar MyScenario.node[60].nic.mac1609_4 	TimesIntoBackoff 	0
scalar MyScenario.node[60].nic.mac1609_4 	SlotsBackoff 	0
scalar MyScenario.node[60].nic.mac1609_4 	NumInternalContention 	0
scalar MyScenario.node[60].nic.mac1609_4 	totalBusyTime 	0.000696
scalar MyScenario.node[60].veinsmobility 	startTime 	1
scalar MyScenario.node[60].veinsmobility 	totalTime 	41
scalar MyScenario.node[60].veinsmobility 	stopTime 	43
scalar MyScenario.node[60].veinsmobility 	minSpeed 	2.323852209351
scalar MyScenario.node[60].veinsmobility 	maxSpeed 	13.86552513889
scalar MyScenario.node[60].veinsmobility 	totalDistance 	479.0141572881
scalar MyScenario.node[60].veinsmobility 	totalCO2Emission 	126.70171753936
scalar MyScenario.node[106].appl 	generatedWSMs 	1
scalar MyScenario.node[106].appl 	receivedWSMs 	5
scalar MyScenario.node[106].appl 	generatedBSMs 	0
scalar MyScenario.node[106].appl 	receivedBSMs 	0
scalar MyScenario.node[106].appl 	generatedWSAs 	0
scalar MyScenario.node[106].appl 	receivedWSAs 	0
scalar MyScenario.node[106].nic.phy80211p 	busyTime 	8.8380952380952e-05
scalar MyScenario.node[106].nic.mac1609_4 	ReceivedUnicastPackets 	0
scalar MyScenario.node[106].nic.mac1609_4 	ReceivedBroadcasts 	5
scalar MyScenario.node[106].nic.mac1609_4 	SentPackets 	1
scalar MyScenario.node[106].nic.mac1609_4 	SNIRLostPackets 	11
scalar MyScenario.node[106].nic.mac1609_4 	RXTXLostPackets 	10
scalar MyScenario.node[106].nic.mac1609_4 	TotalLostPackets 	21
scalar MyScenario.node[106].nic.mac1609_4 	DroppedPacketsInMac 	0
scalar MyScenario.node[106].nic.mac1609_4 	TooLittleTime 	0
scalar MyScenario.node[106].nic.mac1609_4 	TimesIntoBackoff 	1
scalar MyScenario.node[106].nic.mac1609_4 	SlotsBackoff 	3
scalar MyScenario.node[106].nic.mac1609_4 	NumInternalContention 	0
scalar MyScenario.node[106].nic.mac1609_4 	totalBusyTime 	0.002321001392
scalar MyScenario.node[106].veinsmobility 	startTime 	1
scalar MyScenario.node[106].veinsmobility 	totalTime 	41
scalar MyScenario.node[106].veinsmobility 	stopTime 	43
scalar MyScenario.node[106].veinsmobility 	minSpeed 	0.040328080731635
scalar MyScenario.node[106].veinsmobility 	maxSpeed 	13.795199891482
scalar MyScenario.node[106].veinsmobility 	totalDistance 	374.04131100545
scalar MyScenario.node[106].veinsmobility 	totalCO2Emission 	135.94450868435
scalar MyScenario.node[99].appl 	generatedWSMs 	0
scalar MyScenario.node[99].appl 	receivedWSMs 	0
scalar MyScenario.node[99].appl 	generatedBSMs 	0
scalar MyScenario.node[99].appl 	receivedBSMs 	0
scalar MyScenario.node[99].appl 	generatedWSAs 	0
scalar MyScenario.node[99].appl 	receivedWSAs 	0
scalar MyScenario.node[99].nic.phy80211p 	busyTime 	0
scalar MyScenario.node[99].nic.mac1609_4 	ReceivedUnicastPackets 	0
scalar MyScenario.node[99].nic.mac1609_4 	ReceivedBroadcasts 	0
scalar MyScenario.node[99].nic.mac1609_4 	SentPackets 	0
scalar MyScenario.node[99].nic.mac1609_4 	SNIRLostPackets 	0
scalar MyScenario.node[99].nic.mac1609_4 	RXTXLostPackets 	0
scalar MyScenario.node[99].nic.mac1609_4 	TotalLostPackets 	0
scalar MyScenario.node[99].nic.mac1609_4 	DroppedPacketsInMac 	0
scalar MyScenario.node[99].nic.mac1609_4 	TooLittleTime 	0
scalar MyScenario.node[99].nic.mac1609_4 	TimesIntoBackoff 	0
scalar MyScenario.node[99].nic.mac1609_4 	SlotsBackoff 	0
scalar MyScenario.node[99].nic.mac1609_4 	NumInternalContention 	0
scalar MyScenario.node[99].nic.mac1609_4 	totalBusyTime 	0
scalar MyScenario.node[99].veinsmobility 	startTime 	1
scalar MyScenario.node[99].veinsmobility 	totalTime 	42
scalar MyScenario.node[99].veinsmobility 	stopTime 	44
scalar MyScenario.node[99].veinsmobility 	minSpeed 	2.5043569829315
scalar MyScenario.node[99].veinsmobility 	maxSpeed 	13.866700782184
scalar MyScenario.node[99].veinsmobility 	totalDistance 	468.05910621249
scalar MyScenario.node[99].veinsmobility 	totalCO2Emission 	127.16510341149
scalar MyScenario.node[11].appl 	generatedWSMs 	1
scalar MyScenario.node[11].appl 	receivedWSMs 	1
scalar MyScenario.node[11].appl 	generatedBSMs 	0
scalar MyScenario.node[11].appl 	receivedBSMs 	0
scalar MyScenario.node[11].appl 	generatedWSAs 	0
scalar MyScenario.node[11].appl 	receivedWSAs 	0
scalar MyScenario.node[11].nic.phy80211p 	busyTime 	2.6363636363636e-05
scalar MyScenario.node[11].nic.mac1609_4 	ReceivedUnicastPackets 	0
scalar MyScenario.node[11].nic.mac1609_4 	ReceivedBroadcasts 	1
scalar MyScenario.node[11].nic.mac1609_4 	SentPackets 	1
scalar MyScenario.node[11].nic.mac1609_4 	SNIRLostPackets 	4
scalar MyScenario.node[11].nic.mac1609_4 	RXTXLostPackets 	6
scalar MyScenario.node[11].nic.mac1609_4 	TotalLostPackets 	10
scalar MyScenario.node[11].nic.mac1609_4 	DroppedPacketsInMac 	0
scalar MyScenario.node[11].nic.mac1609_4 	TooLittleTime 	0
scalar MyScenario.node[11].nic.mac1609_4 	TimesIntoBackoff 	1
scalar MyScenario.node[11].nic.mac1609_4 	SlotsBackoff 	2
scalar MyScenario.node[11].nic.mac1609_4 	NumInternalContention 	0
scalar MyScenario.node[11].nic.mac1609_4 	totalBusyTime 	0.00069703248
scalar MyScenario.node[11].veinsmobility 	startTime 	1
scalar MyScenario.node[11].veinsmobility 	totalTime 	43
scalar MyScenario.node[11].veinsmobility 	stopTime 	45
scalar MyScenario.node[11].veinsmobility 	minSpeed 	1.9502756807953
scalar MyScenario.node[11].veinsmobility 	maxSpeed 	13.806603047717
scalar MyScenario.node[11].veinsmobility 	totalDistance 	461.88795226929
scalar MyScenario.node[11].veinsmobility 	totalCO2Emission 	153.00336682137
scalar MyScenario.node[64].appl 	generatedWSMs 	1
scalar MyScenario.node[64].appl 	receivedWSMs 	13
scalar MyScenario.node[64].appl 	generatedBSMs 	0
scalar MyScenario.node[64].appl 	receivedBSMs 	0
scalar MyScenario.node[64].appl 	generatedWSAs 	0
scalar MyScenario.node[64].appl 	receivedWSAs 	0
scalar MyScenario.node[64].nic.phy80211p 	busyTime 	0.00018981818181818
scalar MyScenario.node[64].nic.mac1609_4 	ReceivedUnicastPackets 	0
scalar MyScenario.node[64].nic.mac1609_4 	ReceivedBroadcasts 	13
scalar MyScenario.node[64].nic.mac1609_4 	SentPackets 	1
scalar MyScenario.node[64].nic.mac1609_4 	SNIRLostPackets 	23
scalar MyScenario.node[64].nic.mac1609_4 	RXTXLostPackets 	2
scalar MyScenario.node[64].nic.mac1609_4 	TotalLostPackets 	25
scalar MyScenario.node[64].nic.mac1609_4 	DroppedPacketsInMac 	0
scalar MyScenario.node[64].nic.mac1609_4 	TooLittleTime 	0
scalar MyScenario.node[64].nic.mac1609_4 	TimesIntoBackoff 	1
scalar MyScenario.node[64].nic.mac1609_4 	SlotsBackoff 	3
scalar MyScenario.node[64].nic.mac1609_4 	NumInternalContention 	0
scalar MyScenario.node[64].nic.mac1609_4 	totalBusyTime 	0.004641
scalar MyScenario.node[64].veinsmobility 	startTime 	1
scalar MyScenario.node[64].veinsmobility 	totalTime 	43
scalar MyScenario.node[64].veinsmobility 	stopTime 	45
scalar MyScenario.node[64].veinsmobility 	minSpeed 	1.6885032821679
scalar MyScenario.node[64].veinsmobility 	maxSpeed 	13.842660649237
scalar MyScenario.node[64].veinsmobility 	totalDistance 	477.37904989279
scalar MyScenario.node[64].veinsmobility 	totalCO2Emission 	142.32026294273
scalar MyScenario.node[58].appl 	generatedWSMs 	1
scalar MyScenario.node[58].appl 	receivedWSMs 	2
scalar MyScenario.node[58].appl 	generatedBSMs 	0
scalar MyScenario.node[58].appl 	receivedBSMs 	0
scalar MyScenario.node[58].appl 	generatedWSAs 	0
scalar MyScenario.node[58].appl 	receivedWSAs 	0
scalar MyScenario.node[58].nic.phy80211p 	busyTime 	8.2488888888889e-05
scalar MyScenario.node[58].nic.mac1609_4 	ReceivedUnicastPackets 	0
scalar MyScenario.node[58].nic.mac1609_4 	ReceivedBroadcasts 	2
scalar MyScenario.node[58].nic.mac1609_4 	SentPackets 	1
scalar MyScenario.node[58].nic.mac1609_4 	SNIRLostPackets 	14
scalar MyScenario.node[58].nic.mac1609_4 	RXTXLostPackets 	2
scalar MyScenario.node[58].nic.mac1609_4 	TotalLostPackets 	16
scalar MyScenario.node[58].nic.mac1609_4 	DroppedPacketsInMac 	0
scalar MyScenario.node[58].nic.mac1609_4 	TooLittleTime 	0
scalar MyScenario.node[58].nic.mac1609_4 	TimesIntoBackoff 	1
scalar MyScenario.node[58].nic.mac1609_4 	SlotsBackoff 	3
scalar MyScenario.node[58].nic.mac1609_4 	NumInternalContention 	0
scalar MyScenario.node[58].nic.mac1609_4 	totalBusyTime 	0.001393
scalar MyScenario.node[58].veinsmobility 	startTime 	1
scalar MyScenario.node[58].veinsmobility 	totalTime 	44
scalar MyScenario.node[58].veinsmobility 	stopTime 	46
scalar MyScenario.node[58].veinsmobility 	minSpeed 	0.87023593663816
scalar MyScenario.node[58].veinsmobility 	maxSpeed 	13.863460765849
scalar MyScenario.node[58].veinsmobility 	totalDistance 	463.55580539962
scalar MyScenario.node[58].veinsmobility 	totalCO2Emission 	128.24487210532
scalar MyScenario.node[43].appl 	generatedWSMs 	0
scalar MyScenario.node[43].appl 	receivedWSMs 	0
scalar MyScenario.node[43].appl 	generatedBSMs 	0
scalar MyScenario.node[43].appl 	receivedBSMs 	0
scalar MyScenario.node[43].appl 	generatedWSAs 	0
scalar MyScenario.node[43].appl 	receivedWSAs 	0
scalar MyScenario.node[43].nic.phy80211p 	busyTime 	1.0311111111111e-05
scalar MyScenario.node[43].nic.mac1609_4 	ReceivedUnicastPackets 	0
scalar MyScenario.node[43].nic.mac1609_4 	ReceivedBroadcasts 	0
scalar MyScenario.node[43].nic.mac1609_4 	SentPackets 	0
scalar MyScenario.node[43].nic.mac1609_4 	SNIRLostPackets 	2
scalar MyScenario.node[43].nic.mac1609_4 	RXTXLostPackets 	0
scalar MyScenario.node[43].nic.mac1609_4 	TotalLostPackets 	2
scalar MyScenario.node[43].nic.mac1609_4 	DroppedPacketsInMac 	0
scalar MyScenario.node[43].nic.mac1609_4 	TooLittleTime 	0
scalar MyScenario.node[43].nic.mac1609_4 	TimesIntoBackoff 	0
scalar MyScenario.node[43].nic.mac1609_4 	SlotsBackoff 	0
scalar MyScenario.node[43].nic.mac1609_4 	NumInternalContention 	0
scalar MyScenario.node[43].nic.mac1609_4 	totalBusyTime 	0.000464
scalar MyScenario.node[43].veinsmobility 	startTime 	1
scalar MyScenario.node[43].veinsmobility 	totalTime 	44
scalar MyScenario.node[43].veinsmobility 	stopTime 	46
scalar MyScenario.node[43].veinsmobility 	minSpeed 	2.0508913243402
scalar MyScenario.node[43].veinsmobility 	maxSpeed 	13.881387415342
scalar MyScenario.node[43].veinsmobility 	totalDistance 	471.57644596718
scalar MyScenario.node[43].veinsmobility 	totalCO2Emission 	149.61621598761
scalar MyScenario.node[191].appl 	generatedWSMs 	1
scalar MyScenario.node[191].appl 	receivedWSMs 	1
scalar MyScenario.node[191].appl 	generatedBSMs 	0
scalar MyScenario.node[191].appl 	receivedBSMs 	0
scalar MyScenario.node[191].appl 	generatedWSAs 	0
scalar MyScenario.node[191].appl 	receivedWSAs 	0
scalar MyScenario.node[191].nic.phy80211p 	busyTime 	4.4190476190476e-05
scalar MyScenario.node[191].nic.mac1609_4 	ReceivedUnicastPackets 	0
scalar MyScenario.node[191].nic.mac1609_4 	ReceivedBroadcasts 	1
scalar MyScenario.node[191].nic.mac1609_4 	SentPackets 	1
scalar MyScenario.node[191].nic.mac1609_4 	SNIRLostPackets 	7
scalar MyScenario.node[191].nic.mac1609_4 	RXTXLostPackets 	4
scalar MyScenario.node[191].nic.mac1609_4 	TotalLostPackets 	11
scalar MyScenario.node[191].nic.mac1609_4 	DroppedPacketsInMac 	0
scalar MyScenario.node[191].nic.mac1609_4 	TooLittleTime 	0
scalar MyScenario.node[191].nic.mac1609_4 	TimesIntoBackoff 	1
scalar MyScenario.node[191].nic.mac1609_4 	SlotsBackoff 	2
scalar MyScenario.node[191].nic.mac1609_4 	NumInternalContention 	0
scalar MyScenario.node[191].nic.mac1609_4 	totalBusyTime 	0.001161
scalar MyScenario.node[191].veinsmobility 	startTime 	4
scalar MyScenario.node[191].veinsmobility 	totalTime 	41
scalar MyScenario.node[191].veinsmobility 	stopTime 	46
scalar MyScenario.node[191].veinsmobility 	minSpeed 	2.2795028447406
scalar MyScenario.node[191].veinsmobility 	maxSpeed 	13.889409535495
scalar MyScenario.node[191].veinsmobility 	totalDistance 	482.42540329337
scalar MyScenario.node[191].veinsmobility 	totalCO2Emission 	116.95342563635
scalar MyScenario.node[77].appl 	generatedWSMs 	1
scalar MyScenario.node[77].appl 	receivedWSMs 	1
scalar MyScenario.node[77].appl 	generatedBSMs 	0
scalar MyScenario.node[77].appl 	receivedBSMs 	0
scalar MyScenario.node[77].appl 	generatedWSAs 	0
scalar MyScenario.node[77].appl 	receivedWSAs 	0
scalar MyScenario.node[77].nic.phy80211p 	busyTime 	7.5652173913043e-05
scalar MyScenario.node[77].nic.mac1609_4 	ReceivedUnicastPackets 	0
scalar MyScenario.node[77].nic.mac1609_4 	ReceivedBroadcasts 	1
scalar MyScenario.node[77].nic.mac1609_4 	SentPackets 	1
scalar MyScenario.node[77].nic.mac1609_4 	SNIRLostPackets 	14
scalar MyScenario.node[77].nic.mac1609_4 	RXTXLostPackets 	3
scalar MyScenario.node[77].nic.mac1609_4 	TotalLostPackets 	17
scalar MyScenario.node[77].nic.mac1609_4 	DroppedPacketsInMac 	0
scalar MyScenario.node[77].nic.mac1609_4 	TooLittleTime 	0
scalar MyScenario.node[77].nic.mac1609_4 	TimesIntoBackoff 	1
scalar MyScenario.node[77].nic.mac1609_4 	SlotsBackoff 	3
scalar MyScenario.node[77].nic.mac1609_4 	NumInternalContention 	0
scalar MyScenario.node[77].nic.mac1609_4 	totalBusyTime 	0.001393
scalar MyScenario.node[77].veinsmobility 	startTime 	1
scalar MyScenario.node[77].veinsmobility 	totalTime 	45
scalar MyScenario.node[77].veinsmobility 	stopTime 	47
scalar MyScenario.node[77].veinsmobility 	minSpeed 	0.0010286278357385
scalar MyScenario.node[77].veinsmobility 	maxSpeed 	13.778474528925
scalar MyScenario.node[77].veinsmobility 	totalDistance 	377.11867248873
scalar MyScenario.node[77].veinsmobility 	totalCO2Emission 	139.05191252499
scalar MyScenario.node[12].appl 	generatedWSMs 	1
scalar MyScenario.node[12].appl 	receivedWSMs 	2
scalar MyScenario.node[12].appl 	generatedBSMs 	0
scalar MyScenario.node[12].appl 	receivedBSMs 	0
scalar MyScenario.node[12].appl 	generatedWSAs 	0
scalar MyScenario.node[12].appl 	receivedWSAs 	0
scalar MyScenario.node[12].nic.phy80211p 	busyTime 	0.00010859574468085
scalar MyScenario.node[12].nic.mac1609_4 	ReceivedUnicastPackets 	0
scalar MyScenario.node[12].nic.mac1609_4 	ReceivedBroadcasts 	2
scalar MyScenario.node[12].nic.mac1609_4 	SentPackets 	1
scalar MyScenario.node[12].nic.mac1609_4 	SNIRLostPackets 	20
scalar MyScenario.node[12].nic.mac1609_4 	RXTXLostPackets 	4
scalar MyScenario.node[12].nic.mac1609_4 	TotalLostPackets 	24
scalar MyScenario.node[12].nic.mac1609_4 	DroppedPacketsInMac 	0
scalar MyScenario.node[12].nic.mac1609_4 	TooLittleTime 	0
scalar MyScenario.node[12].nic.mac1609_4 	TimesIntoBackoff 	1
scalar MyScenario.node[12].nic.mac1609_4 	SlotsBackoff 	2
scalar MyScenario.node[12].nic.mac1609_4 	NumInternalContention 	0
scalar MyScenario.node[12].nic.mac1609_4 	totalBusyTime 	0.001625
scalar MyScenario.node[12].veinsmobility 	startTime 	1
scalar MyScenario.node[12].veinsmobility 	totalTime 	46
scalar MyScenario.node[12].veinsmobility 	stopTime 	48
scalar MyScenario.node[12].veinsmobility 	minSpeed 	1.6490745400777
scalar MyScenario.node[12].veinsmobility 	maxSpeed 	13.867448167107
scalar MyScenario.node[12].veinsmobility 	totalDistance 	482.7663457216
scalar MyScenario.node[12].veinsmobility 	totalCO2Emission 	172.26279508219
scalar MyScenario.node[30].appl 	generatedWSMs 	0
scalar MyScenario.node[30].appl 	receivedWSMs 	0
scalar MyScenario.node[30].appl 	generatedBSMs 	0
scalar MyScenario.node[30].appl 	receivedBSMs 	0
scalar MyScenario.node[30].appl 	generatedWSAs 	0
scalar MyScenario.node[30].appl 	receivedWSAs 	0
scalar MyScenario.node[30].nic.phy80211p 	busyTime 	5.6816326530612e-05
scalar MyScenario.node[30].nic.mac1609_4 	ReceivedUnicastPackets 	0
scalar MyScenario.node[30].nic.mac1609_4 	ReceivedBroadcasts 	0
scalar MyScenario.node[30].nic.mac1609_4 	SentPackets 	0
scalar MyScenario.node[30].nic.mac1609_4 	SNIRLostPackets 	12
scalar MyScenario.node[30].nic.mac1609_4 	RXTXLostPackets 	0
scalar MyScenario.node[30].nic.mac1609_4 	TotalLostPackets 	12
scalar MyScenario.node[30].nic.mac1609_4 	DroppedPacketsInMac 	0
scalar MyScenario.node[30].nic.mac1609_4 	TooLittleTime 	0
scalar MyScenario.node[30].nic.mac1609_4 	TimesIntoBackoff 	0
scalar MyScenario.node[30].nic.mac1609_4 	SlotsBackoff 	0
scalar MyScenario.node[30].nic.mac1609_4 	NumInternalContention 	0
scalar MyScenario.node[30].nic.mac1609_4 	totalBusyTime 	0.000928
scalar MyScenario.node[30].veinsmobility 	startTime 	1
scalar MyScenario.node[30].veinsmobility 	totalTime 	48
scalar MyScenario.node[30].veinsmobility 	stopTime 	50
scalar MyScenario.node[30].veinsmobility 	minSpeed 	0.13814722577201
scalar MyScenario.node[30].veinsmobility 	maxSpeed 	13.851819612458
scalar MyScenario.node[30].veinsmobility 	totalDistance 	472.84804185082
scalar MyScenario.node[30].veinsmobility 	totalCO2Emission 	158.8634747661
scalar MyScenario.node[140].appl 	generatedWSMs 	1
scalar MyScenario.node[140].appl 	receivedWSMs 	2
scalar MyScenario.node[140].appl 	generatedBSMs 	0
scalar MyScenario.node[140].appl 	receivedBSMs 	0
scalar MyScenario.node[140].appl 	generatedWSAs 	0
scalar MyScenario.node[140].appl 	receivedWSAs 	0
scalar MyScenario.node[140].nic.phy80211p 	busyTime 	3.3142857142857e-05
scalar MyScenario.node[140].nic.mac1609_4 	ReceivedUnicastPackets 	0
scalar MyScenario.node[140].nic.mac1609_4 	ReceivedBroadcasts 	2
scalar MyScenario.node[140].nic.mac1609_4 	SentPackets 	1
scalar MyScenario.node[140].nic.mac1609_4 	SNIRLostPackets 	5
scalar MyScenario.node[140].nic.mac1609_4 	RXTXLostPackets 	9
scalar MyScenario.node[140].nic.mac1609_4 	TotalLostPackets 	14
scalar MyScenario.node[140].nic.mac1609_4 	DroppedPacketsInMac 	0
scalar MyScenario.node[140].nic.mac1609_4 	TooLittleTime 	0
scalar MyScenario.node[140].nic.mac1609_4 	TimesIntoBackoff 	1
scalar MyScenario.node[140].nic.mac1609_4 	SlotsBackoff 	3
scalar MyScenario.node[140].nic.mac1609_4 	NumInternalContention 	0
scalar MyScenario.node[140].nic.mac1609_4 	totalBusyTime 	0.001625063606
scalar MyScenario.node[140].veinsmobility 	startTime 	1
scalar MyScenario.node[140].veinsmobility 	totalTime 	48
scalar MyScenario.node[140].veinsmobility 	stopTime 	50
scalar MyScenario.node[140].veinsmobility 	minSpeed 	2.1747430280549
scalar MyScenario.node[140].veinsmobility 	maxSpeed 	13.872828999185
scalar MyScenario.node[140].veinsmobility 	totalDistance 	566.48603679049
scalar MyScenario.node[140].veinsmobility 	totalCO2Emission 	152.23890695042
scalar MyScenario.node[149].appl 	generatedWSMs 	0
scalar MyScenario.node[149].appl 	receivedWSMs 	0
scalar MyScenario.node[149].appl 	generatedBSMs 	0
scalar MyScenario.node[149].appl 	receivedBSMs 	0
scalar MyScenario.node[149].appl 	generatedWSAs 	0
scalar MyScenario.node[149].appl 	receivedWSAs 	0
scalar MyScenario.node[149].nic.phy80211p 	busyTime 	2.3673469387755e-05
scalar MyScenario.node[149].nic.mac1609_4 	ReceivedUnicastPackets 	0
scalar MyScenario.node[149].nic.mac1609_4 	ReceivedBroadcasts 	0
scalar MyScenario.node[149].nic.mac1609_4 	SentPackets 	0
scalar MyScenario.node[149].nic.mac1609_4 	SNIRLostPackets 	5
scalar MyScenario.node[149].nic.mac1609_4 	RXTXLostPackets 	0
scalar MyScenario.node[149].nic.mac1609_4 	TotalLostPackets 	5
scalar MyScenario.node[149].nic.mac1609_4 	DroppedPacketsInMac 	0
scalar MyScenario.node[149].nic.mac1609_4 	TooLittleTime 	0
scalar MyScenario.node[149].nic.mac1609_4 	TimesIntoBackoff 	0
scalar MyScenario.node[149].nic.mac1609_4 	SlotsBackoff 	0
scalar MyScenario.node[149].nic.mac1609_4 	NumInternalContention 	0
scalar MyScenario.node[149].nic.mac1609_4 	totalBusyTime 	0.000464
scalar MyScenario.node[149].veinsmobility 	startTime 	1
scalar MyScenario.node[149].veinsmobility 	totalTime 	48
scalar MyScenario.node[149].veinsmobility 	stopTime 	50
scalar MyScenario.node[149].veinsmobility 	minSpeed 	1.6722907267511
scalar MyScenario.node[149].veinsmobility 	maxSpeed 	13.893451787182
scalar MyScenario.node[149].veinsmobility 	totalDistance 	575.01788075721
scalar MyScenario.node[149].veinsmobility 	totalCO2Emission 	144.02147383268
scalar MyScenario.node[46].appl 	generatedWSMs 	0
scalar MyScenario.node[46].appl 	receivedWSMs 	0
scalar MyScenario.node[46].appl 	generatedBSMs 	0
scalar MyScenario.node[46].appl 	receivedBSMs 	0
scalar MyScenario.node[46].appl 	generatedWSAs 	0
scalar MyScenario.node[46].appl 	receivedWSAs 	0
scalar MyScenario.node[46].nic.phy80211p 	busyTime 	0
scalar MyScenario.node[46].nic.mac1609_4 	ReceivedUnicastPackets 	0
scalar MyScenario.node[46].nic.mac1609_4 	ReceivedBroadcasts 	0
scalar MyScenario.node[46].nic.mac1609_4 	SentPackets 	0
scalar MyScenario.node[46].nic.mac1609_4 	SNIRLostPackets 	0
scalar MyScenario.node[46].nic.mac1609_4 	RXTXLostPackets 	0
scalar MyScenario.node[46].nic.mac1609_4 	TotalLostPackets 	0
scalar MyScenario.node[46].nic.mac1609_4 	DroppedPacketsInMac 	0
scalar MyScenario.node[46].nic.mac1609_4 	TooLittleTime 	0
scalar MyScenario.node[46].nic.mac1609_4 	TimesIntoBackoff 	0
scalar MyScenario.node[46].nic.mac1609_4 	SlotsBackoff 	0
scalar MyScenario.node[46].nic.mac1609_4 	NumInternalContention 	0
scalar MyScenario.node[46].nic.mac1609_4 	totalBusyTime 	0
scalar MyScenario.node[46].veinsmobility 	startTime 	1
scalar MyScenario.node[46].veinsmobility 	totalTime 	48
scalar MyScenario.node[46].veinsmobility 	stopTime 	50
scalar MyScenario.node[46].veinsmobility 	minSpeed 	1.8586452122312
scalar MyScenario.node[46].veinsmobility 	maxSpeed 	13.884561879095
scalar MyScenario.node[46].veinsmobility 	totalDistance 	579.77946164602
scalar MyScenario.node[46].veinsmobility 	totalCO2Emission 	139.58226306458
scalar MyScenario.node[107].appl 	generatedWSMs 	1
scalar MyScenario.node[107].appl 	receivedWSMs 	17
scalar MyScenario.node[107].appl 	generatedBSMs 	0
scalar MyScenario.node[107].appl 	receivedBSMs 	0
scalar MyScenario.node[107].appl 	generatedWSAs 	0
scalar MyScenario.node[107].appl 	receivedWSAs 	0
scalar MyScenario.node[107].nic.phy80211p 	busyTime 	0.00017846153846154
scalar MyScenario.node[107].nic.mac1609_4 	ReceivedUnicastPackets 	0
scalar MyScenario.node[107].nic.mac1609_4 	ReceivedBroadcasts 	17
scalar MyScenario.node[107].nic.mac1609_4 	SentPackets 	1
scalar MyScenario.node[107].nic.mac1609_4 	SNIRLostPackets 	23
scalar MyScenario.node[107].nic.mac1609_4 	RXTXLostPackets 	5
scalar MyScenario.node[107].nic.mac1609_4 	TotalLostPackets 	28
scalar MyScenario.node[107].nic.mac1609_4 	DroppedPacketsInMac 	0
scalar MyScenario.node[107].nic.mac1609_4 	TooLittleTime 	0
scalar MyScenario.node[107].nic.mac1609_4 	TimesIntoBackoff 	1
scalar MyScenario.node[107].nic.mac1609_4 	SlotsBackoff 	3
scalar MyScenario.node[107].nic.mac1609_4 	NumInternalContention 	0
scalar MyScenario.node[107].nic.mac1609_4 	totalBusyTime 	0.005569
scalar MyScenario.node[107].veinsmobility 	startTime 	1
scalar MyScenario.node[107].veinsmobility 	totalTime 	51
scalar MyScenario.node[107].veinsmobility 	stopTime 	53
scalar MyScenario.node[107].veinsmobility 	minSpeed 	3.9179380273e-05
scalar MyScenario.node[107].veinsmobility 	maxSpeed 	13.815170660801
scalar MyScenario.node[107].veinsmobility 	totalDistance 	473.89802494939
scalar MyScenario.node[107].veinsmobility 	totalCO2Emission 	169.57647917747
scalar MyScenario.node[72].appl 	generatedWSMs 	0
scalar MyScenario.node[72].appl 	receivedWSMs 	0
scalar MyScenario.node[72].appl 	generatedBSMs 	0
scalar MyScenario.node[72].appl 	receivedBSMs 	0
scalar MyScenario.node[72].appl 	generatedWSAs 	0
scalar MyScenario.node[72].appl 	receivedWSAs 	0
scalar MyScenario.node[72].nic.phy80211p 	busyTime 	3.5692307692308e-05
scalar MyScenario.node[72].nic.mac1609_4 	ReceivedUnicastPackets 	0
scalar MyScenario.node[72].nic.mac1609_4 	ReceivedBroadcasts 	0
scalar MyScenario.node[72].nic.mac1609_4 	SentPackets 	0
scalar MyScenario.node[72].nic.mac1609_4 	SNIRLostPackets 	8
scalar MyScenario.node[72].nic.mac1609_4 	RXTXLostPackets 	0
scalar MyScenario.node[72].nic.mac1609_4 	TotalLostPackets 	8
scalar MyScenario.node[72].nic.mac1609_4 	DroppedPacketsInMac 	0
scalar MyScenario.node[72].nic.mac1609_4 	TooLittleTime 	0
scalar MyScenario.node[72].nic.mac1609_4 	TimesIntoBackoff 	0
scalar MyScenario.node[72].nic.mac1609_4 	SlotsBackoff 	0
scalar MyScenario.node[72].nic.mac1609_4 	NumInternalContention 	0
scalar MyScenario.node[72].nic.mac1609_4 	totalBusyTime 	0.000464
scalar MyScenario.node[72].veinsmobility 	startTime 	1
scalar MyScenario.node[72].veinsmobility 	totalTime 	51
scalar MyScenario.node[72].veinsmobility 	stopTime 	53
scalar MyScenario.node[72].veinsmobility 	minSpeed 	1.8333748948993
scalar MyScenario.node[72].veinsmobility 	maxSpeed 	13.885494550993
scalar MyScenario.node[72].veinsmobility 	totalDistance 	569.37444783081
scalar MyScenario.node[72].veinsmobility 	totalCO2Emission 	165.64945717068
scalar MyScenario.node[78].appl 	generatedWSMs 	0
scalar MyScenario.node[78].appl 	receivedWSMs 	0
scalar MyScenario.node[78].appl 	generatedBSMs 	0
scalar MyScenario.node[78].appl 	receivedBSMs 	0
scalar MyScenario.node[78].appl 	generatedWSAs 	0
scalar MyScenario.node[78].appl 	receivedWSAs 	0
scalar MyScenario.node[78].nic.phy80211p 	busyTime 	5.3538461538462e-05
scalar MyScenario.node[78].nic.mac1609_4 	ReceivedUnicastPackets 	0
scalar MyScenario.node[78].nic.mac1609_4 	ReceivedBroadcasts 	0
scalar MyScenario.node[78].nic.mac1609_4 	SentPackets 	0
scalar MyScenario.node[78].nic.mac1609_4 	SNIRLostPackets 	12
scalar MyScenario.node[78].nic.mac1609_4 	RXTXLostPackets 	0
scalar MyScenario.node[78].nic.mac1609_4 	TotalLostPackets 	12
scalar MyScenario.node[78].nic.mac1609_4 	DroppedPacketsInMac 	0
scalar MyScenario.node[78].nic.mac1609_4 	TooLittleTime 	0
scalar MyScenario.node[78].nic.mac1609_4 	TimesIntoBackoff 	0
scalar MyScenario.node[78].nic.mac1609_4 	SlotsBackoff 	0
scalar MyScenario.node[78].nic.mac1609_4 	NumInternalContention 	0
scalar MyScenario.node[78].nic.mac1609_4 	totalBusyTime 	0.000696
scalar MyScenario.node[78].veinsmobility 	startTime 	1
scalar MyScenario.node[78].veinsmobility 	totalTime 	51
scalar MyScenario.node[78].veinsmobility 	stopTime 	53
scalar MyScenario.node[78].veinsmobility 	minSpeed 	1.8262358092703
scalar MyScenario.node[78].veinsmobility 	maxSpeed 	13.853870123974
scalar MyScenario.node[78].veinsmobility 	totalDistance 	583.652572047
scalar MyScenario.node[78].veinsmobility 	totalCO2Emission 	174.00861059124
scalar MyScenario.node[4].appl 	generatedWSMs 	1
scalar MyScenario.node[4].appl 	receivedWSMs 	2
scalar MyScenario.node[4].appl 	generatedBSMs 	0
scalar MyScenario.node[4].appl 	receivedBSMs 	0
scalar MyScenario.node[4].appl 	generatedWSAs 	0
scalar MyScenario.node[4].appl 	receivedWSAs 	0
scalar MyScenario.node[4].nic.phy80211p 	busyTime 	3.5692307692308e-05
scalar MyScenario.node[4].nic.mac1609_4 	ReceivedUnicastPackets 	0
scalar MyScenario.node[4].nic.mac1609_4 	ReceivedBroadcasts 	2
scalar MyScenario.node[4].nic.mac1609_4 	SentPackets 	1
scalar MyScenario.node[4].nic.mac1609_4 	SNIRLostPackets 	6
scalar MyScenario.node[4].nic.mac1609_4 	RXTXLostPackets 	6
scalar MyScenario.node[4].nic.mac1609_4 	TotalLostPackets 	12
scalar MyScenario.node[4].nic.mac1609_4 	DroppedPacketsInMac 	0
scalar MyScenario.node[4].nic.mac1609_4 	TooLittleTime 	0
scalar MyScenario.node[4].nic.mac1609_4 	TimesIntoBackoff 	1
scalar MyScenario.node[4].nic.mac1609_4 	SlotsBackoff 	1
scalar MyScenario.node[4].nic.mac1609_4 	NumInternalContention 	0
scalar MyScenario.node[4].nic.mac1609_4 	totalBusyTime 	0.001161
scalar MyScenario.node[4].veinsmobility 	startTime 	1
scalar MyScenario.node[4].veinsmobility 	totalTime 	51
scalar MyScenario.node[4].veinsmobility 	stopTime 	53
scalar MyScenario.node[4].veinsmobility 	minSpeed 	2.4569308995735
scalar MyScenario.node[4].veinsmobility 	maxSpeed 	13.743137325393
scalar MyScenario.node[4].veinsmobility 	totalDistance 	576.98345685865
scalar MyScenario.node[4].veinsmobility 	totalCO2Emission 	164.83837571052
scalar MyScenario.node[164].appl 	generatedWSMs 	1
scalar MyScenario.node[164].appl 	receivedWSMs 	2
scalar MyScenario.node[164].appl 	generatedBSMs 	0
scalar MyScenario.node[164].appl 	receivedBSMs 	0
scalar MyScenario.node[164].appl 	generatedWSAs 	0
scalar MyScenario.node[164].appl 	receivedWSAs 	0
scalar MyScenario.node[164].nic.phy80211p 	busyTime 	3.248e-05
scalar MyScenario.node[164].nic.mac1609_4 	ReceivedUnicastPackets 	0
scalar MyScenario.node[164].nic.mac1609_4 	ReceivedBroadcasts 	2
scalar MyScenario.node[164].nic.mac1609_4 	SentPackets 	1
scalar MyScenario.node[164].nic.mac1609_4 	SNIRLostPackets 	5
scalar MyScenario.node[164].nic.mac1609_4 	RXTXLostPackets 	2
scalar MyScenario.node[164].nic.mac1609_4 	TotalLostPackets 	7
scalar MyScenario.node[164].nic.mac1609_4 	DroppedPacketsInMac 	0
scalar MyScenario.node[164].nic.mac1609_4 	TooLittleTime 	0
scalar MyScenario.node[164].nic.mac1609_4 	TimesIntoBackoff 	1
scalar MyScenario.node[164].nic.mac1609_4 	SlotsBackoff 	0
scalar MyScenario.node[164].nic.mac1609_4 	NumInternalContention 	0
scalar MyScenario.node[164].nic.mac1609_4 	totalBusyTime 	0.001161
scalar MyScenario.node[164].veinsmobility 	startTime 	4
scalar MyScenario.node[164].veinsmobility 	totalTime 	49
scalar MyScenario.node[164].veinsmobility 	stopTime 	54
scalar MyScenario.node[164].veinsmobility 	minSpeed 	2.0122205337975
scalar MyScenario.node[164].veinsmobility 	maxSpeed 	13.889465416851
scalar MyScenario.node[164].veinsmobility 	totalDistance 	575.83522829108
scalar MyScenario.node[164].veinsmobility 	totalCO2Emission 	146.18593999081
scalar MyScenario.node[154].appl 	generatedWSMs 	0
scalar MyScenario.node[154].appl 	receivedWSMs 	0
scalar MyScenario.node[154].appl 	generatedBSMs 	0
scalar MyScenario.node[154].appl 	receivedBSMs 	0
scalar MyScenario.node[154].appl 	generatedWSAs 	0
scalar MyScenario.node[154].appl 	receivedWSAs 	0
scalar MyScenario.node[154].nic.phy80211p 	busyTime 	0
scalar MyScenario.node[154].nic.mac1609_4 	ReceivedUnicastPackets 	0
scalar MyScenario.node[154].nic.mac1609_4 	ReceivedBroadcasts 	0
scalar MyScenario.node[154].nic.mac1609_4 	SentPackets 	0
scalar MyScenario.node[154].nic.mac1609_4 	SNIRLostPackets 	0
scalar MyScenario.node[154].nic.mac1609_4 	RXTXLostPackets 	0
scalar MyScenario.node[154].nic.mac1609_4 	TotalLostPackets 	0
scalar MyScenario.node[154].nic.mac1609_4 	DroppedPacketsInMac 	0
scalar MyScenario.node[154].nic.mac1609_4 	TooLittleTime 	0
scalar MyScenario.node[154].nic.mac1609_4 	TimesIntoBackoff 	0
scalar MyScenario.node[154].nic.mac1609_4 	SlotsBackoff 	0
scalar MyScenario.node[154].nic.mac1609_4 	NumInternalContention 	0
scalar MyScenario.node[154].nic.mac1609_4 	totalBusyTime 	0
scalar MyScenario.node[154].veinsmobility 	startTime 	1
scalar MyScenario.node[154].veinsmobility 	totalTime 	52
scalar MyScenario.node[154].veinsmobility 	stopTime 	54
scalar MyScenario.node[154].veinsmobility 	minSpeed 	2.0620063665749
scalar MyScenario.node[154].veinsmobility 	maxSpeed 	13.854987345822
scalar MyScenario.node[154].veinsmobility 	totalDistance 	582.80642592574
scalar MyScenario.node[154].veinsmobility 	totalCO2Emission 	171.30177030143
scalar MyScenario.node[190].appl 	generatedWSMs 	1
scalar MyScenario.node[190].appl 	receivedWSMs 	1
scalar MyScenario.node[190].appl 	generatedBSMs 	0
scalar MyScenario.node[190].appl 	receivedBSMs 	0
scalar MyScenario.node[190].appl 	generatedWSAs 	0
scalar MyScenario.node[190].appl 	receivedWSAs 	0
scalar MyScenario.node[190].nic.phy80211p 	busyTime 	2.784e-05
scalar MyScenario.node[190].nic.mac1609_4 	ReceivedUnicastPackets 	0
scalar MyScenario.node[190].nic.mac1609_4 	ReceivedBroadcasts 	1
scalar MyScenario.node[190].nic.mac1609_4 	SentPackets 	1
scalar MyScenario.node[190].nic.mac1609_4 	SNIRLostPackets 	5
scalar MyScenario.node[190].nic.mac1609_4 	RXTXLostPackets 	9
scalar MyScenario.node[190].nic.mac1609_4 	TotalLostPackets 	14
scalar MyScenario.node[190].nic.mac1609_4 	DroppedPacketsInMac 	0
scalar MyScenario.node[190].nic.mac1609_4 	TooLittleTime 	0
scalar MyScenario.node[190].nic.mac1609_4 	TimesIntoBackoff 	1
scalar MyScenario.node[190].nic.mac1609_4 	SlotsBackoff 	0
scalar MyScenario.node[190].nic.mac1609_4 	NumInternalContention 	0
scalar MyScenario.node[190].nic.mac1609_4 	totalBusyTime 	0.000929023593
scalar MyScenario.node[190].veinsmobility 	startTime 	4
scalar MyScenario.node[190].veinsmobility 	totalTime 	49
scalar MyScenario.node[190].veinsmobility 	stopTime 	54
scalar MyScenario.node[190].veinsmobility 	minSpeed 	2.073782905424
scalar MyScenario.node[190].veinsmobility 	maxSpeed 	13.8210430298
scalar MyScenario.node[190].veinsmobility 	totalDistance 	571.93286172587
scalar MyScenario.node[190].veinsmobility 	totalCO2Emission 	140.34348750395
scalar MyScenario.node[95].appl 	generatedWSMs 	1
scalar MyScenario.node[95].appl 	receivedWSMs 	4
scalar MyScenario.node[95].appl 	generatedBSMs 	0
scalar MyScenario.node[95].appl 	receivedBSMs 	0
scalar MyScenario.node[95].appl 	generatedWSAs 	0
scalar MyScenario.node[95].appl 	receivedWSAs 	0
scalar MyScenario.node[95].nic.phy80211p 	busyTime 	5.1555555555556e-05
scalar MyScenario.node[95].nic.mac1609_4 	ReceivedUnicastPackets 	0
scalar MyScenario.node[95].nic.mac1609_4 	ReceivedBroadcasts 	4
scalar MyScenario.node[95].nic.mac1609_4 	SentPackets 	1
scalar MyScenario.node[95].nic.mac1609_4 	SNIRLostPackets 	8
scalar MyScenario.node[95].nic.mac1609_4 	RXTXLostPackets 	4
scalar MyScenario.node[95].nic.mac1609_4 	TotalLostPackets 	12
scalar MyScenario.node[95].nic.mac1609_4 	DroppedPacketsInMac 	0
scalar MyScenario.node[95].nic.mac1609_4 	TooLittleTime 	0
scalar MyScenario.node[95].nic.mac1609_4 	TimesIntoBackoff 	1
scalar MyScenario.node[95].nic.mac1609_4 	SlotsBackoff 	1
scalar MyScenario.node[95].nic.mac1609_4 	NumInternalContention 	0
scalar MyScenario.node[95].nic.mac1609_4 	totalBusyTime 	0.002089
scalar MyScenario.node[95].veinsmobility 	startTime 	1
scalar MyScenario.node[95].veinsmobility 	totalTime 	53
scalar MyScenario.node[95].veinsmobility 	stopTime 	55
scalar MyScenario.node[95].veinsmobility 	minSpeed 	0.2267490524542
scalar MyScenario.node[95].veinsmobility 	maxSpeed 	13.845306342212
scalar MyScenario.node[95].veinsmobility 	totalDistance 	567.68409596808
scalar MyScenario.node[95].veinsmobility 	totalCO2Emission 	166.65676272809
scalar MyScenario.node[115].appl 	generatedWSMs 	1
scalar MyScenario.node[115].appl 	receivedWSMs 	1
scalar MyScenario.node[115].appl 	generatedBSMs 	0
scalar MyScenario.node[115].appl 	receivedBSMs 	0
scalar MyScenario.node[115].appl 	generatedWSAs 	0
scalar MyScenario.node[115].appl 	receivedWSAs 	0
scalar MyScenario.node[115].nic.phy80211p 	busyTime 	6.0148148148148e-05
scalar MyScenario.node[115].nic.mac1609_4 	ReceivedUnicastPackets 	0
scalar MyScenario.node[115].nic.mac1609_4 	ReceivedBroadcasts 	1
scalar MyScenario.node[115].nic.mac1609_4 	SentPackets 	1
scalar MyScenario.node[115].nic.mac1609_4 	SNIRLostPackets 	13
scalar MyScenario.node[115].nic.mac1609_4 	RXTXLostPackets 	2
scalar MyScenario.node[115].nic.mac1609_4 	TotalLostPackets 	15
scalar MyScenario.node[115].nic.mac1609_4 	DroppedPacketsInMac 	0
scalar MyScenario.node[115].nic.mac1609_4 	TooLittleTime 	0
scalar MyScenario.node[115].nic.mac1609_4 	TimesIntoBackoff 	1
scalar MyScenario.node[115].nic.mac1609_4 	SlotsBackoff 	2
scalar MyScenario.node[115].nic.mac1609_4 	NumInternalContention 	0
scalar MyScenario.node[115].nic.mac1609_4 	totalBusyTime 	0.001857
scalar MyScenario.node[115].veinsmobility 	startTime 	1
scalar MyScenario.node[115].veinsmobility 	totalTime 	53
scalar MyScenario.node[115].veinsmobility 	stopTime 	55
scalar MyScenario.node[115].veinsmobility 	minSpeed 	1.3551151361316
scalar MyScenario.node[115].veinsmobility 	maxSpeed 	13.856671166769
scalar MyScenario.node[115].veinsmobility 	totalDistance 	564.4814127758
scalar MyScenario.node[115].veinsmobility 	totalCO2Emission 	181.71210521489
scalar MyScenario.node[29].appl 	generatedWSMs 	1
scalar MyScenario.node[29].appl 	receivedWSMs 	10
scalar MyScenario.node[29].appl 	generatedBSMs 	0
scalar MyScenario.node[29].appl 	receivedBSMs 	0
scalar MyScenario.node[29].appl 	generatedWSAs 	0
scalar MyScenario.node[29].appl 	receivedWSAs 	0
scalar MyScenario.node[29].nic.phy80211p 	busyTime 	0.00010545454545455
scalar MyScenario.node[29].nic.mac1609_4 	ReceivedUnicastPackets 	0
scalar MyScenario.node[29].nic.mac1609_4 	ReceivedBroadcasts 	10
scalar MyScenario.node[29].nic.mac1609_4 	SentPackets 	1
scalar MyScenario.node[29].nic.mac1609_4 	SNIRLostPackets 	15
scalar MyScenario.node[29].nic.mac1609_4 	RXTXLostPackets 	4
scalar MyScenario.node[29].nic.mac1609_4 	TotalLostPackets 	19
scalar MyScenario.node[29].nic.mac1609_4 	DroppedPacketsInMac 	0
scalar MyScenario.node[29].nic.mac1609_4 	TooLittleTime 	0
scalar MyScenario.node[29].nic.mac1609_4 	TimesIntoBackoff 	1
scalar MyScenario.node[29].nic.mac1609_4 	SlotsBackoff 	3
scalar MyScenario.node[29].nic.mac1609_4 	NumInternalContention 	0
scalar MyScenario.node[29].nic.mac1609_4 	totalBusyTime 	0.003481
scalar MyScenario.node[29].veinsmobility 	startTime 	1
scalar MyScenario.node[29].veinsmobility 	totalTime 	54
scalar MyScenario.node[29].veinsmobility 	stopTime 	56
scalar MyScenario.node[29].veinsmobility 	minSpeed 	2.1266442938475
scalar MyScenario.node[29].veinsmobility 	maxSpeed 	13.876085632038
scalar MyScenario.node[29].veinsmobility 	totalDistance 	675.74359200012
scalar MyScenario.node[29].veinsmobility 	totalCO2Emission 	147.09997672256
scalar MyScenario.node[144].appl 	generatedWSMs 	0
scalar MyScenario.node[144].appl 	receivedWSMs 	0
scalar MyScenario.node[144].appl 	generatedBSMs 	0
scalar MyScenario.node[144].appl 	receivedBSMs 	0
scalar MyScenario.node[144].appl 	generatedWSAs 	0
scalar MyScenario.node[144].appl 	receivedWSAs 	0
scalar MyScenario.node[144].nic.phy80211p 	busyTime 	0
scalar MyScenario.node[144].nic.mac1609_4 	ReceivedUnicastPackets 	0
scalar MyScenario.node[144].nic.mac1609_4 	ReceivedBroadcasts 	0
scalar MyScenario.node[144].nic.mac1609_4 	SentPackets 	0
scalar MyScenario.node[144].nic.mac1609_4 	SNIRLostPackets 	0
scalar MyScenario.node[144].nic.mac1609_4 	RXTXLostPackets 	0
scalar MyScenario.node[144].nic.mac1609_4 	TotalLostPackets 	0
scalar MyScenario.node[144].nic.mac1609_4 	DroppedPacketsInMac 	0
scalar MyScenario.node[144].nic.mac1609_4 	TooLittleTime 	0
scalar MyScenario.node[144].nic.mac1609_4 	TimesIntoBackoff 	0
scalar MyScenario.node[144].nic.mac1609_4 	SlotsBackoff 	0
scalar MyScenario.node[144].nic.mac1609_4 	NumInternalContention 	0
scalar MyScenario.node[144].nic.mac1609_4 	totalBusyTime 	0
scalar MyScenario.node[144].veinsmobility 	startTime 	1
scalar MyScenario.node[144].veinsmobility 	totalTime 	54
scalar MyScenario.node[144].veinsmobility 	stopTime 	56
scalar MyScenario.node[144].veinsmobility 	minSpeed 	0.025927677443551
scalar MyScenario.node[144].veinsmobility 	maxSpeed 	13.836216354882
scalar MyScenario.node[144].veinsmobility 	totalDistance 	583.43962764618
scalar MyScenario.node[144].veinsmobility 	totalCO2Emission 	174.78369171666
scalar MyScenario.node[105].appl 	generatedWSMs 	0
scalar MyScenario.node[105].appl 	receivedWSMs 	0
scalar MyScenario.node[105].appl 	generatedBSMs 	0
scalar MyScenario.node[105].appl 	receivedBSMs 	0
scalar MyScenario.node[105].appl 	generatedWSAs 	0
scalar MyScenario.node[105].appl 	receivedWSAs 	0
scalar MyScenario.node[105].nic.phy80211p 	busyTime 	4.4771929824561e-05
scalar MyScenario.node[105].nic.mac1609_4 	ReceivedUnicastPackets 	0
scalar MyScenario.node[105].nic.mac1609_4 	ReceivedBroadcasts 	0
scalar MyScenario.node[105].nic.mac1609_4 	SentPackets 	0
scalar MyScenario.node[105].nic.mac1609_4 	SNIRLostPackets 	11
scalar MyScenario.node[105].nic.mac1609_4 	RXTXLostPackets 	0
scalar MyScenario.node[105].nic.mac1609_4 	TotalLostPackets 	11
scalar MyScenario.node[105].nic.mac1609_4 	DroppedPacketsInMac 	0
scalar MyScenario.node[105].nic.mac1609_4 	TooLittleTime 	0
scalar MyScenario.node[105].nic.mac1609_4 	TimesIntoBackoff 	0
scalar MyScenario.node[105].nic.mac1609_4 	SlotsBackoff 	0
scalar MyScenario.node[105].nic.mac1609_4 	NumInternalContention 	0
scalar MyScenario.node[105].nic.mac1609_4 	totalBusyTime 	0.000696
scalar MyScenario.node[105].veinsmobility 	startTime 	1
scalar MyScenario.node[105].veinsmobility 	totalTime 	56
scalar MyScenario.node[105].veinsmobility 	stopTime 	58
scalar MyScenario.node[105].veinsmobility 	minSpeed 	0.00026804332245002
scalar MyScenario.node[105].veinsmobility 	maxSpeed 	13.88920133838
scalar MyScenario.node[105].veinsmobility 	totalDistance 	558.33602019786
scalar MyScenario.node[105].veinsmobility 	totalCO2Emission 	181.85201399393
scalar MyScenario.node[73].appl 	generatedWSMs 	0
scalar MyScenario.node[73].appl 	receivedWSMs 	0
scalar MyScenario.node[73].appl 	generatedBSMs 	0
scalar MyScenario.node[73].appl 	receivedBSMs 	0
scalar MyScenario.node[73].appl 	generatedWSAs 	0
scalar MyScenario.node[73].appl 	receivedWSAs 	0
scalar MyScenario.node[73].nic.phy80211p 	busyTime 	1.2210526315789e-05
scalar MyScenario.node[73].nic.mac1609_4 	ReceivedUnicastPackets 	0
scalar MyScenario.node[73].nic.mac1609_4 	ReceivedBroadcasts 	0
scalar MyScenario.node[73].nic.mac1609_4 	SentPackets 	0
scalar MyScenario.node[73].nic.mac1609_4 	SNIRLostPackets 	3
scalar MyScenario.node[73].nic.mac1609_4 	RXTXLostPackets 	0
scalar MyScenario.node[73].nic.mac1609_4 	TotalLostPackets 	3
scalar MyScenario.node[73].nic.mac1609_4 	DroppedPacketsInMac 	0
scalar MyScenario.node[73].nic.mac1609_4 	TooLittleTime 	0
scalar MyScenario.node[73].nic.mac1609_4 	TimesIntoBackoff 	0
scalar MyScenario.node[73].nic.mac1609_4 	SlotsBackoff 	0
scalar MyScenario.node[73].nic.mac1609_4 	NumInternalContention 	0
scalar MyScenario.node[73].nic.mac1609_4 	totalBusyTime 	0.000232
scalar MyScenario.node[73].veinsmobility 	startTime 	1
scalar MyScenario.node[73].veinsmobility 	totalTime 	56
scalar MyScenario.node[73].veinsmobility 	stopTime 	58
scalar MyScenario.node[73].veinsmobility 	minSpeed 	0.0058838773280655
scalar MyScenario.node[73].veinsmobility 	maxSpeed 	13.897583606676
scalar MyScenario.node[73].veinsmobility 	totalDistance 	573.55306531388
scalar MyScenario.node[73].veinsmobility 	totalCO2Emission 	184.43512414938
scalar MyScenario.node[0].appl 	generatedWSMs 	20
scalar MyScenario.node[0].appl 	receivedWSMs 	7
scalar MyScenario.node[0].appl 	generatedBSMs 	0
scalar MyScenario.node[0].appl 	receivedBSMs 	0
scalar MyScenario.node[0].appl 	generatedWSAs 	0
scalar MyScenario.node[0].appl 	receivedWSAs 	0
scalar MyScenario.node[0].nic.phy80211p 	busyTime 	0.000164
scalar MyScenario.node[0].nic.mac1609_4 	ReceivedUnicastPackets 	0
scalar MyScenario.node[0].nic.mac1609_4 	ReceivedBroadcasts 	7
scalar MyScenario.node[0].nic.mac1609_4 	SentPackets 	20
scalar MyScenario.node[0].nic.mac1609_4 	SNIRLostPackets 	34
scalar MyScenario.node[0].nic.mac1609_4 	RXTXLostPackets 	0
[...]
scalar MyScenario.node[94].nic.mac1609_4 	SentPackets 	0
scalar MyScenario.node[94].nic.mac1609_4 	SNIRLostPackets 	2
scalar MyScenario.node[94].nic.mac1609_4 	RXTXLostPackets 	0
scalar MyScenario.node[94].nic.mac1609_4 	TotalLostPackets 	2
scalar MyScenario.node[94].nic.mac1609_4 	DroppedPacketsInMac 	0
scalar MyScenario.node[94].nic.mac1609_4 	TooLittleTime 	0
scalar MyScenario.node[94].nic.mac1609_4 	TimesIntoBackoff 	0
scalar MyScenario.node[94].nic.mac1609_4 	SlotsBackoff 	0
scalar MyScenario.node[94].nic.mac1609_4 	NumInternalContention 	0
scalar MyScenario.node[94].nic.mac1609_4 	totalBusyTime 	0.000232
scalar MyScenario.node[94].veinsmobility 	startTime 	1
scalar MyScenario.node[94].veinsmobility 	totalTime 	127
scalar MyScenario.node[94].veinsmobility 	stopTime 	129
scalar MyScenario.node[94].veinsmobility 	minSpeed 	0.0048755477535781
scalar MyScenario.node[94].veinsmobility 	maxSpeed 	13.897638989217
scalar MyScenario.node[94].veinsmobility 	totalDistance 	1384.7516565445
scalar MyScenario.node[94].veinsmobility 	totalCO2Emission 	394.90756184777
scalar MyScenario.node[194].appl 	generatedWSMs 	0
scalar MyScenario.node[194].appl 	receivedWSMs 	0
scalar MyScenario.node[194].appl 	generatedBSMs 	0
scalar MyScenario.node[194].appl 	receivedBSMs 	0
scalar MyScenario.node[194].appl 	generatedWSAs 	0
scalar MyScenario.node[194].appl 	receivedWSAs 	0
scalar MyScenario.node[194].nic.phy80211p 	busyTime 	0
scalar MyScenario.node[194].nic.mac1609_4 	ReceivedUnicastPackets 	0
scalar MyScenario.node[194].nic.mac1609_4 	ReceivedBroadcasts 	0
scalar MyScenario.node[194].nic.mac1609_4 	SentPackets 	0
scalar MyScenario.node[194].nic.mac1609_4 	SNIRLostPackets 	0
scalar MyScenario.node[194].nic.mac1609_4 	RXTXLostPackets 	0
scalar MyScenario.node[194].nic.mac1609_4 	TotalLostPackets 	0
scalar MyScenario.node[194].nic.mac1609_4 	DroppedPacketsInMac 	0
scalar MyScenario.node[194].nic.mac1609_4 	TooLittleTime 	0
scalar MyScenario.node[194].nic.mac1609_4 	TimesIntoBackoff 	0
scalar MyScenario.node[194].nic.mac1609_4 	SlotsBackoff 	0
scalar MyScenario.node[194].nic.mac1609_4 	NumInternalContention 	0
scalar MyScenario.node[194].nic.mac1609_4 	totalBusyTime 	0
scalar MyScenario.node[194].veinsmobility 	startTime 	4
scalar MyScenario.node[194].veinsmobility 	totalTime 	126
scalar MyScenario.node[194].veinsmobility 	stopTime 	131
scalar MyScenario.node[194].veinsmobility 	minSpeed 	0.0053022512221023
scalar MyScenario.node[194].veinsmobility 	maxSpeed 	13.844563305285
scalar MyScenario.node[194].veinsmobility 	totalDistance 	1271.3496416758
scalar MyScenario.node[194].veinsmobility 	totalCO2Emission 	389.21777358068
scalar MyScenario.node[51].appl 	generatedWSMs 	1
scalar MyScenario.node[51].appl 	receivedWSMs 	7
scalar MyScenario.node[51].appl 	generatedBSMs 	0
scalar MyScenario.node[51].appl 	receivedBSMs 	0
scalar MyScenario.node[51].appl 	generatedWSAs 	0
scalar MyScenario.node[51].appl 	receivedWSAs 	0
scalar MyScenario.node[51].nic.phy80211p 	busyTime 	2.4793893129771e-05
scalar MyScenario.node[51].nic.mac1609_4 	ReceivedUnicastPackets 	0
scalar MyScenario.node[51].nic.mac1609_4 	ReceivedBroadcasts 	7
scalar MyScenario.node[51].nic.mac1609_4 	SentPackets 	1
scalar MyScenario.node[51].nic.mac1609_4 	SNIRLostPackets 	7
scalar MyScenario.node[51].nic.mac1609_4 	RXTXLostPackets 	7
scalar MyScenario.node[51].nic.mac1609_4 	TotalLostPackets 	14
scalar MyScenario.node[51].nic.mac1609_4 	DroppedPacketsInMac 	0
scalar MyScenario.node[51].nic.mac1609_4 	TooLittleTime 	0
scalar MyScenario.node[51].nic.mac1609_4 	TimesIntoBackoff 	1
scalar MyScenario.node[51].nic.mac1609_4 	SlotsBackoff 	3
scalar MyScenario.node[51].nic.mac1609_4 	NumInternalContention 	0
scalar MyScenario.node[51].nic.mac1609_4 	totalBusyTime 	0.002553
scalar MyScenario.node[51].veinsmobility 	startTime 	1
scalar MyScenario.node[51].veinsmobility 	totalTime 	130
scalar MyScenario.node[51].veinsmobility 	stopTime 	132
scalar MyScenario.node[51].veinsmobility 	minSpeed 	2.0599638792906e-10
scalar MyScenario.node[51].veinsmobility 	maxSpeed 	13.891277307994
scalar MyScenario.node[51].veinsmobility 	totalDistance 	1275.6904305569
scalar MyScenario.node[51].veinsmobility 	totalCO2Emission 	399.17912987915
scalar MyScenario.node[52].appl 	generatedWSMs 	0
scalar MyScenario.node[52].appl 	receivedWSMs 	0
scalar MyScenario.node[52].appl 	generatedBSMs 	0
scalar MyScenario.node[52].appl 	receivedBSMs 	0
scalar MyScenario.node[52].appl 	generatedWSAs 	0
scalar MyScenario.node[52].appl 	receivedWSAs 	0
scalar MyScenario.node[52].nic.phy80211p 	busyTime 	1.230303030303e-05
scalar MyScenario.node[52].nic.mac1609_4 	ReceivedUnicastPackets 	0
scalar MyScenario.node[52].nic.mac1609_4 	ReceivedBroadcasts 	0
scalar MyScenario.node[52].nic.mac1609_4 	SentPackets 	0
scalar MyScenario.node[52].nic.mac1609_4 	SNIRLostPackets 	7
scalar MyScenario.node[52].nic.mac1609_4 	RXTXLostPackets 	0
scalar MyScenario.node[52].nic.mac1609_4 	TotalLostPackets 	7
scalar MyScenario.node[52].nic.mac1609_4 	DroppedPacketsInMac 	0
scalar MyScenario.node[52].nic.mac1609_4 	TooLittleTime 	0
scalar MyScenario.node[52].nic.mac1609_4 	TimesIntoBackoff 	0
scalar MyScenario.node[52].nic.mac1609_4 	SlotsBackoff 	0
scalar MyScenario.node[52].nic.mac1609_4 	NumInternalContention 	0
scalar MyScenario.node[52].nic.mac1609_4 	totalBusyTime 	0.000464
scalar MyScenario.node[52].veinsmobility 	startTime 	1
scalar MyScenario.node[52].veinsmobility 	totalTime 	131
scalar MyScenario.node[52].veinsmobility 	stopTime 	133
scalar MyScenario.node[52].veinsmobility 	minSpeed 	1.3627029370103e-08
scalar MyScenario.node[52].veinsmobility 	maxSpeed 	13.879137408151
scalar MyScenario.node[52].veinsmobility 	totalDistance 	1371.9550309577
scalar MyScenario.node[52].veinsmobility 	totalCO2Emission 	397.78610547679
scalar MyScenario.node[32].appl 	generatedWSMs 	1
scalar MyScenario.node[32].appl 	receivedWSMs 	2
scalar MyScenario.node[32].appl 	generatedBSMs 	0
scalar MyScenario.node[32].appl 	receivedBSMs 	0
scalar MyScenario.node[32].appl 	generatedWSAs 	0
scalar MyScenario.node[32].appl 	receivedWSAs 	0
scalar MyScenario.node[32].nic.phy80211p 	busyTime 	2.0173913043478e-05
scalar MyScenario.node[32].nic.mac1609_4 	ReceivedUnicastPackets 	0
scalar MyScenario.node[32].nic.mac1609_4 	ReceivedBroadcasts 	2
scalar MyScenario.node[32].nic.mac1609_4 	SentPackets 	1
scalar MyScenario.node[32].nic.mac1609_4 	SNIRLostPackets 	10
scalar MyScenario.node[32].nic.mac1609_4 	RXTXLostPackets 	2
scalar MyScenario.node[32].nic.mac1609_4 	TotalLostPackets 	12
scalar MyScenario.node[32].nic.mac1609_4 	DroppedPacketsInMac 	0
scalar MyScenario.node[32].nic.mac1609_4 	TooLittleTime 	0
scalar MyScenario.node[32].nic.mac1609_4 	TimesIntoBackoff 	1
scalar MyScenario.node[32].nic.mac1609_4 	SlotsBackoff 	0
scalar MyScenario.node[32].nic.mac1609_4 	NumInternalContention 	0
scalar MyScenario.node[32].nic.mac1609_4 	totalBusyTime 	0.001161
scalar MyScenario.node[32].veinsmobility 	startTime 	1
scalar MyScenario.node[32].veinsmobility 	totalTime 	137
scalar MyScenario.node[32].veinsmobility 	stopTime 	139
scalar MyScenario.node[32].veinsmobility 	minSpeed 	1.200321257552
scalar MyScenario.node[32].veinsmobility 	maxSpeed 	13.897868969897
scalar MyScenario.node[32].veinsmobility 	totalDistance 	1576.0117154863
scalar MyScenario.node[32].veinsmobility 	totalCO2Emission 	393.59379918044
scalar MyScenario.node[37].appl 	generatedWSMs 	0
scalar MyScenario.node[37].appl 	receivedWSMs 	0
scalar MyScenario.node[37].appl 	generatedBSMs 	0
scalar MyScenario.node[37].appl 	receivedBSMs 	0
scalar MyScenario.node[37].appl 	generatedWSAs 	0
scalar MyScenario.node[37].appl 	receivedWSAs 	0
scalar MyScenario.node[37].nic.phy80211p 	busyTime 	9.8723404255319e-06
scalar MyScenario.node[37].nic.mac1609_4 	ReceivedUnicastPackets 	0
scalar MyScenario.node[37].nic.mac1609_4 	ReceivedBroadcasts 	0
scalar MyScenario.node[37].nic.mac1609_4 	SentPackets 	0
scalar MyScenario.node[37].nic.mac1609_4 	SNIRLostPackets 	6
scalar MyScenario.node[37].nic.mac1609_4 	RXTXLostPackets 	0
scalar MyScenario.node[37].nic.mac1609_4 	TotalLostPackets 	6
scalar MyScenario.node[37].nic.mac1609_4 	DroppedPacketsInMac 	0
scalar MyScenario.node[37].nic.mac1609_4 	TooLittleTime 	0
scalar MyScenario.node[37].nic.mac1609_4 	TimesIntoBackoff 	0
scalar MyScenario.node[37].nic.mac1609_4 	SlotsBackoff 	0
scalar MyScenario.node[37].nic.mac1609_4 	NumInternalContention 	0
scalar MyScenario.node[37].nic.mac1609_4 	totalBusyTime 	0.000464
scalar MyScenario.node[37].veinsmobility 	startTime 	1
scalar MyScenario.node[37].veinsmobility 	totalTime 	140
scalar MyScenario.node[37].veinsmobility 	stopTime 	142
scalar MyScenario.node[37].veinsmobility 	minSpeed 	2.2776455927316e-11
scalar MyScenario.node[37].veinsmobility 	maxSpeed 	13.89696212355
scalar MyScenario.node[37].veinsmobility 	totalDistance 	1177.8405615191
scalar MyScenario.node[37].veinsmobility 	totalCO2Emission 	435.03650863135
scalar MyScenario.node[88].appl 	generatedWSMs 	0
scalar MyScenario.node[88].appl 	receivedWSMs 	0
scalar MyScenario.node[88].appl 	generatedBSMs 	0
scalar MyScenario.node[88].appl 	receivedBSMs 	0
scalar MyScenario.node[88].appl 	generatedWSAs 	0
scalar MyScenario.node[88].appl 	receivedWSAs 	0
scalar MyScenario.node[88].nic.phy80211p 	busyTime 	0
scalar MyScenario.node[88].nic.mac1609_4 	ReceivedUnicastPackets 	0
scalar MyScenario.node[88].nic.mac1609_4 	ReceivedBroadcasts 	0
scalar MyScenario.node[88].nic.mac1609_4 	SentPackets 	0
scalar MyScenario.node[88].nic.mac1609_4 	SNIRLostPackets 	0
scalar MyScenario.node[88].nic.mac1609_4 	RXTXLostPackets 	0
scalar MyScenario.node[88].nic.mac1609_4 	TotalLostPackets 	0
scalar MyScenario.node[88].nic.mac1609_4 	DroppedPacketsInMac 	0
scalar MyScenario.node[88].nic.mac1609_4 	TooLittleTime 	0
scalar MyScenario.node[88].nic.mac1609_4 	TimesIntoBackoff 	0
scalar MyScenario.node[88].nic.mac1609_4 	SlotsBackoff 	0
scalar MyScenario.node[88].nic.mac1609_4 	NumInternalContention 	0
scalar MyScenario.node[88].nic.mac1609_4 	totalBusyTime 	0
scalar MyScenario.node[88].veinsmobility 	startTime 	1
scalar MyScenario.node[88].veinsmobility 	totalTime 	146
scalar MyScenario.node[88].veinsmobility 	stopTime 	148
scalar MyScenario.node[88].veinsmobility 	minSpeed 	0.044179625477752
scalar MyScenario.node[88].veinsmobility 	maxSpeed 	13.893569344399
scalar MyScenario.node[88].veinsmobility 	totalDistance 	1569.0781202833
scalar MyScenario.node[88].veinsmobility 	totalCO2Emission 	426.65691851104
scalar MyScenario.node[162].appl 	generatedWSMs 	0
scalar MyScenario.node[162].appl 	receivedWSMs 	0
scalar MyScenario.node[162].appl 	generatedBSMs 	0
scalar MyScenario.node[162].appl 	receivedBSMs 	0
scalar MyScenario.node[162].appl 	generatedWSAs 	0
scalar MyScenario.node[162].appl 	receivedWSAs 	0
scalar MyScenario.node[162].nic.phy80211p 	busyTime 	3.1780821917808e-06
scalar MyScenario.node[162].nic.mac1609_4 	ReceivedUnicastPackets 	0
scalar MyScenario.node[162].nic.mac1609_4 	ReceivedBroadcasts 	0
scalar MyScenario.node[162].nic.mac1609_4 	SentPackets 	0
scalar MyScenario.node[162].nic.mac1609_4 	SNIRLostPackets 	2
scalar MyScenario.node[162].nic.mac1609_4 	RXTXLostPackets 	0
scalar MyScenario.node[162].nic.mac1609_4 	TotalLostPackets 	2
scalar MyScenario.node[162].nic.mac1609_4 	DroppedPacketsInMac 	0
scalar MyScenario.node[162].nic.mac1609_4 	TooLittleTime 	0
scalar MyScenario.node[162].nic.mac1609_4 	TimesIntoBackoff 	0
scalar MyScenario.node[162].nic.mac1609_4 	SlotsBackoff 	0
scalar MyScenario.node[162].nic.mac1609_4 	NumInternalContention 	0
scalar MyScenario.node[162].nic.mac1609_4 	totalBusyTime 	0.000232
scalar MyScenario.node[162].veinsmobility 	startTime 	4
scalar MyScenario.node[162].veinsmobility 	totalTime 	145
scalar MyScenario.node[162].veinsmobility 	stopTime 	150
scalar MyScenario.node[162].veinsmobility 	minSpeed 	5.1461354249358e-09
scalar MyScenario.node[162].veinsmobility 	maxSpeed 	13.884775060741
scalar MyScenario.node[162].veinsmobility 	totalDistance 	1277.3406619868
scalar MyScenario.node[162].veinsmobility 	totalCO2Emission 	439.66660361949
scalar MyScenario.node[143].appl 	generatedWSMs 	0
scalar MyScenario.node[143].appl 	receivedWSMs 	0
scalar MyScenario.node[143].appl 	generatedBSMs 	0
scalar MyScenario.node[143].appl 	receivedBSMs 	0
scalar MyScenario.node[143].appl 	generatedWSAs 	0
scalar MyScenario.node[143].appl 	receivedWSAs 	0
scalar MyScenario.node[143].nic.phy80211p 	busyTime 	7.682119205298e-06
scalar MyScenario.node[143].nic.mac1609_4 	ReceivedUnicastPackets 	0
scalar MyScenario.node[143].nic.mac1609_4 	ReceivedBroadcasts 	0
scalar MyScenario.node[143].nic.mac1609_4 	SentPackets 	0
scalar MyScenario.node[143].nic.mac1609_4 	SNIRLostPackets 	5
scalar MyScenario.node[143].nic.mac1609_4 	RXTXLostPackets 	0
scalar MyScenario.node[143].nic.mac1609_4 	TotalLostPackets 	5
scalar MyScenario.node[143].nic.mac1609_4 	DroppedPacketsInMac 	0
scalar MyScenario.node[143].nic.mac1609_4 	TooLittleTime 	0
scalar MyScenario.node[143].nic.mac1609_4 	TimesIntoBackoff 	0
scalar MyScenario.node[143].nic.mac1609_4 	SlotsBackoff 	0
scalar MyScenario.node[143].nic.mac1609_4 	NumInternalContention 	0
scalar MyScenario.node[143].nic.mac1609_4 	totalBusyTime 	0.000464
scalar MyScenario.node[143].veinsmobility 	startTime 	1
scalar MyScenario.node[143].veinsmobility 	totalTime 	150
scalar MyScenario.node[143].veinsmobility 	stopTime 	152
scalar MyScenario.node[143].veinsmobility 	minSpeed 	0.4968231233274
scalar MyScenario.node[143].veinsmobility 	maxSpeed 	13.898008272843
scalar MyScenario.node[143].veinsmobility 	totalDistance 	1666.5476514677
scalar MyScenario.node[143].veinsmobility 	totalCO2Emission 	485.71485785406
scalar MyScenario.node[187].appl 	generatedWSMs 	1
scalar MyScenario.node[187].appl 	receivedWSMs 	11
scalar MyScenario.node[187].appl 	generatedBSMs 	0
scalar MyScenario.node[187].appl 	receivedBSMs 	0
scalar MyScenario.node[187].appl 	generatedWSAs 	0
scalar MyScenario.node[187].appl 	receivedWSAs 	0
scalar MyScenario.node[187].nic.phy80211p 	busyTime 	2.5947368421053e-05
scalar MyScenario.node[187].nic.mac1609_4 	ReceivedUnicastPackets 	0
scalar MyScenario.node[187].nic.mac1609_4 	ReceivedBroadcasts 	11
scalar MyScenario.node[187].nic.mac1609_4 	SentPackets 	1
scalar MyScenario.node[187].nic.mac1609_4 	SNIRLostPackets 	6
scalar MyScenario.node[187].nic.mac1609_4 	RXTXLostPackets 	7
scalar MyScenario.node[187].nic.mac1609_4 	TotalLostPackets 	13
scalar MyScenario.node[187].nic.mac1609_4 	DroppedPacketsInMac 	0
scalar MyScenario.node[187].nic.mac1609_4 	TooLittleTime 	0
scalar MyScenario.node[187].nic.mac1609_4 	TimesIntoBackoff 	1
scalar MyScenario.node[187].nic.mac1609_4 	SlotsBackoff 	0
scalar MyScenario.node[187].nic.mac1609_4 	NumInternalContention 	0
scalar MyScenario.node[187].nic.mac1609_4 	totalBusyTime 	0.003249
scalar MyScenario.node[187].veinsmobility 	startTime 	4
scalar MyScenario.node[187].veinsmobility 	totalTime 	151
scalar MyScenario.node[187].veinsmobility 	stopTime 	156
scalar MyScenario.node[187].veinsmobility 	minSpeed 	0
scalar MyScenario.node[187].veinsmobility 	maxSpeed 	13.863825862505
scalar MyScenario.node[187].veinsmobility 	totalDistance 	1171.9072570581
scalar MyScenario.node[187].veinsmobility 	totalCO2Emission 	443.87844497676
scalar MyScenario.node[198].appl 	generatedWSMs 	0
scalar MyScenario.node[198].appl 	receivedWSMs 	0
scalar MyScenario.node[198].appl 	generatedBSMs 	0
scalar MyScenario.node[198].appl 	receivedBSMs 	0
scalar MyScenario.node[198].appl 	generatedWSAs 	0
scalar MyScenario.node[198].appl 	receivedWSAs 	0
scalar MyScenario.node[198].nic.phy80211p 	busyTime 	4.6711409395973e-06
scalar MyScenario.node[198].nic.mac1609_4 	ReceivedUnicastPackets 	0
scalar MyScenario.node[198].nic.mac1609_4 	ReceivedBroadcasts 	0
scalar MyScenario.node[198].nic.mac1609_4 	SentPackets 	0
scalar MyScenario.node[198].nic.mac1609_4 	SNIRLostPackets 	3
scalar MyScenario.node[198].nic.mac1609_4 	RXTXLostPackets 	0
scalar MyScenario.node[198].nic.mac1609_4 	TotalLostPackets 	3
scalar MyScenario.node[198].nic.mac1609_4 	DroppedPacketsInMac 	0
scalar MyScenario.node[198].nic.mac1609_4 	TooLittleTime 	0
scalar MyScenario.node[198].nic.mac1609_4 	TimesIntoBackoff 	0
scalar MyScenario.node[198].nic.mac1609_4 	SlotsBackoff 	0
scalar MyScenario.node[198].nic.mac1609_4 	NumInternalContention 	0
scalar MyScenario.node[198].nic.mac1609_4 	totalBusyTime 	0.000232
scalar MyScenario.node[198].veinsmobility 	startTime 	7
scalar MyScenario.node[198].veinsmobility 	totalTime 	148
scalar MyScenario.node[198].veinsmobility 	stopTime 	156
scalar MyScenario.node[198].veinsmobility 	minSpeed 	0.00066943681122827
scalar MyScenario.node[198].veinsmobility 	maxSpeed 	13.844067017199
scalar MyScenario.node[198].veinsmobility 	totalDistance 	1270.5160520086
scalar MyScenario.node[198].veinsmobility 	totalCO2Emission 	444.50227236548
scalar MyScenario.node[17].appl 	generatedWSMs 	0
scalar MyScenario.node[17].appl 	receivedWSMs 	0
scalar MyScenario.node[17].appl 	generatedBSMs 	0
scalar MyScenario.node[17].appl 	receivedBSMs 	0
scalar MyScenario.node[17].appl 	generatedWSAs 	0
scalar MyScenario.node[17].appl 	receivedWSAs 	0
scalar MyScenario.node[17].nic.phy80211p 	busyTime 	0
scalar MyScenario.node[17].nic.mac1609_4 	ReceivedUnicastPackets 	0
scalar MyScenario.node[17].nic.mac1609_4 	ReceivedBroadcasts 	0
scalar MyScenario.node[17].nic.mac1609_4 	SentPackets 	0
scalar MyScenario.node[17].nic.mac1609_4 	SNIRLostPackets 	0
scalar MyScenario.node[17].nic.mac1609_4 	RXTXLostPackets 	0
scalar MyScenario.node[17].nic.mac1609_4 	TotalLostPackets 	0
scalar MyScenario.node[17].nic.mac1609_4 	DroppedPacketsInMac 	0
scalar MyScenario.node[17].nic.mac1609_4 	TooLittleTime 	0
scalar MyScenario.node[17].nic.mac1609_4 	TimesIntoBackoff 	0
scalar MyScenario.node[17].nic.mac1609_4 	SlotsBackoff 	0
scalar MyScenario.node[17].nic.mac1609_4 	NumInternalContention 	0
scalar MyScenario.node[17].nic.mac1609_4 	totalBusyTime 	0
scalar MyScenario.node[17].veinsmobility 	startTime 	1
scalar MyScenario.node[17].veinsmobility 	totalTime 	159
scalar MyScenario.node[17].veinsmobility 	stopTime 	161
scalar MyScenario.node[17].veinsmobility 	minSpeed 	8.3188049900622e-05
scalar MyScenario.node[17].veinsmobility 	maxSpeed 	13.885720711853
scalar MyScenario.node[17].veinsmobility 	totalDistance 	1664.9997104498
scalar MyScenario.node[17].veinsmobility 	totalCO2Emission 	466.07967557453
scalar MyScenario.node[18].appl 	generatedWSMs 	0
scalar MyScenario.node[18].appl 	receivedWSMs 	0
scalar MyScenario.node[18].appl 	generatedBSMs 	0
scalar MyScenario.node[18].appl 	receivedBSMs 	0
scalar MyScenario.node[18].appl 	generatedWSAs 	0
scalar MyScenario.node[18].appl 	receivedWSAs 	0
scalar MyScenario.node[18].nic.phy80211p 	busyTime 	0
scalar MyScenario.node[18].nic.mac1609_4 	ReceivedUnicastPackets 	0
scalar MyScenario.node[18].nic.mac1609_4 	ReceivedBroadcasts 	0
scalar MyScenario.node[18].nic.mac1609_4 	SentPackets 	0
scalar MyScenario.node[18].nic.mac1609_4 	SNIRLostPackets 	0
scalar MyScenario.node[18].nic.mac1609_4 	RXTXLostPackets 	0
scalar MyScenario.node[18].nic.mac1609_4 	TotalLostPackets 	0
scalar MyScenario.node[18].nic.mac1609_4 	DroppedPacketsInMac 	0
scalar MyScenario.node[18].nic.mac1609_4 	TooLittleTime 	0
scalar MyScenario.node[18].nic.mac1609_4 	TimesIntoBackoff 	0
scalar MyScenario.node[18].nic.mac1609_4 	SlotsBackoff 	0
scalar MyScenario.node[18].nic.mac1609_4 	NumInternalContention 	0
scalar MyScenario.node[18].nic.mac1609_4 	totalBusyTime 	0
scalar MyScenario.node[18].veinsmobility 	startTime 	1
scalar MyScenario.node[18].veinsmobility 	totalTime 	159
scalar MyScenario.node[18].veinsmobility 	stopTime 	161
scalar MyScenario.node[18].veinsmobility 	minSpeed 	5.5259358568125e-08
scalar MyScenario.node[18].veinsmobility 	maxSpeed 	13.880205094931
scalar MyScenario.node[18].veinsmobility 	totalDistance 	1357.6358500002
scalar MyScenario.node[18].veinsmobility 	totalCO2Emission 	488.71065825276
