version 2
run General-0-20170829-17:38:40-8100
attr configname General
attr datetime 20170829-17:38:40
attr density 100
attr experiment General
attr inifile omnetpp.ini
attr iterationvars $density=100
attr iterationvars2 "$density=100, $repetition=0"
attr measurement $density=100
attr network com.liborio.pi.MyScenario
attr processid 8100
attr repetition 0
attr replication #0
attr resultdir results
attr runnumber 0
attr seedset 0
param **.coreDebug false
param **.debug false
param *.**.nic.mac1609_4.bitrate 6Mbps
param *.**.nic.mac1609_4.txPower 20mW
param *.**.nic.mac1609_4.useServiceChannel true
param *.**.nic.phy80211p.analogueModels "xmldoc(\"config.xml\")"
param *.**.nic.phy80211p.antenna "xmldoc(\"antenna.xml\", \"/root/Antenna[@id='monopole']\")"
param *.**.nic.phy80211p.decider "xmldoc(\"config.xml\")"
param *.**.nic.phy80211p.sensitivity -84.39dBm
param *.**.nic.phy80211p.thermalNoise -110dBm
param *.**.nic.phy80211p.usePropagationDelay true
param *.**.nic.phy80211p.useThermalNoise true
param *.annotations.draw true
param *.connectionManager.drawMaxIntfDist false
param *.connectionManager.maxInterfDist 2600m
param *.connectionManager.sendDirect true
param *.manager.autoShutdown true
param *.manager.host "\"localhost\""
param *.manager.launchConfig "xmldoc(string(${density = 100, 200, 300, 400})+\"_\"+ string(${repetition})+\".launchd.xml\")"
param *.manager.port 9999
param *.manager.updateInterval 1s
param *.node[*].appl.beaconInterval 1s
param *.node[*].appl.dataOnSch true
param *.node[*].appl.headerLength "80 bit"
param *.node[*].appl.isSource false
param *.node[*].appl.numMsgs 100
param *.node[*].appl.sendBeacons false
param *.node[*].appl.stopTrafficTime 130s
param *.node[*].appl.wsmInterval 3s
param *.node[*].applType "\"Flooding\""
param *.node[*].veinsmobility.x 0
param *.node[*].veinsmobility.y 0
param *.node[*].veinsmobility.z 1.895
param *.node[*].veinsmobilityType.debug true
param *.node[0].appl.isSource true
param *.playgroundSizeX 2500m
param *.playgroundSizeY 2500m
param *.playgroundSizeZ 50m

scalar . 	density 	100
scalar MyScenario.node[11].appl 	generatedWSMs 	0
scalar MyScenario.node[11].appl 	receivedWSMs 	0
scalar MyScenario.node[11].appl 	generatedBSMs 	0
scalar MyScenario.node[11].appl 	receivedBSMs 	0
scalar MyScenario.node[11].appl 	generatedWSAs 	0
scalar MyScenario.node[11].appl 	receivedWSAs 	0
scalar MyScenario.node[11].nic.phy80211p 	busyTime 	0
scalar MyScenario.node[11].nic.mac1609_4 	ReceivedUnicastPackets 	0
scalar MyScenario.node[11].nic.mac1609_4 	ReceivedBroadcasts 	0
scalar MyScenario.node[11].nic.mac1609_4 	SentPackets 	0
scalar MyScenario.node[11].nic.mac1609_4 	SNIRLostPackets 	0
scalar MyScenario.node[11].nic.mac1609_4 	RXTXLostPackets 	0
scalar MyScenario.node[11].nic.mac1609_4 	TotalLostPackets 	0
scalar MyScenario.node[11].nic.mac1609_4 	DroppedPacketsInMac 	0
scalar MyScenario.node[11].nic.mac1609_4 	TooLittleTime 	0
scalar MyScenario.node[11].nic.mac1609_4 	TimesIntoBackoff 	0
scalar MyScenario.node[11].nic.mac1609_4 	SlotsBackoff 	0
scalar MyScenario.node[11].nic.mac1609_4 	NumInternalContention 	0
scalar MyScenario.node[11].nic.mac1609_4 	totalBusyTime 	0
scalar MyScenario.node[11].veinsmobility 	startTime 	1
scalar MyScenario.node[11].veinsmobility 	totalTime 	9
scalar MyScenario.node[11].veinsmobility 	stopTime 	11
scalar MyScenario.node[11].veinsmobility 	minSpeed 	2.4175439893501
scalar MyScenario.node[11].veinsmobility 	maxSpeed 	13.794568189885
scalar MyScenario.node[11].veinsmobility 	totalDistance 	86.114182138486
scalar MyScenario.node[11].veinsmobility 	totalCO2Emission 	37.004915801297
scalar MyScenario.node[26].appl 	generatedWSMs 	0
scalar MyScenario.node[26].appl 	receivedWSMs 	0
scalar MyScenario.node[26].appl 	generatedBSMs 	0
scalar MyScenario.node[26].appl 	receivedBSMs 	0
scalar MyScenario.node[26].appl 	generatedWSAs 	0
scalar MyScenario.node[26].appl 	receivedWSAs 	0
scalar MyScenario.node[26].nic.phy80211p 	busyTime 	0
scalar MyScenario.node[26].nic.mac1609_4 	ReceivedUnicastPackets 	0
scalar MyScenario.node[26].nic.mac1609_4 	ReceivedBroadcasts 	0
scalar MyScenario.node[26].nic.mac1609_4 	SentPackets 	0
scalar MyScenario.node[26].nic.mac1609_4 	SNIRLostPackets 	0
scalar MyScenario.node[26].nic.mac1609_4 	RXTXLostPackets 	0
scalar MyScenario.node[26].nic.mac1609_4 	TotalLostPackets 	0
scalar MyScenario.node[26].nic.mac1609_4 	DroppedPacketsInMac 	0
scalar MyScenario.node[26].nic.mac1609_4 	TooLittleTime 	0
scalar MyScenario.node[26].nic.mac1609_4 	TimesIntoBackoff 	0
scalar MyScenario.node[26].nic.mac1609_4 	SlotsBackoff 	0
scalar MyScenario.node[26].nic.mac1609_4 	NumInternalContention 	0
scalar MyScenario.node[26].nic.mac1609_4 	totalBusyTime 	0
scalar MyScenario.node[26].veinsmobility 	startTime 	1
scalar MyScenario.node[26].veinsmobility 	totalTime 	17
scalar MyScenario.node[26].veinsmobility 	stopTime 	19
scalar MyScenario.node[26].veinsmobility 	minSpeed 	2.1326397273224
scalar MyScenario.node[26].veinsmobility 	maxSpeed 	13.857228261419
scalar MyScenario.node[26].veinsmobility 	totalDistance 	169.04011919251
scalar MyScenario.node[26].veinsmobility 	totalCO2Emission 	65.369750213298
scalar MyScenario.node[65].appl 	generatedWSMs 	0
scalar MyScenario.node[65].appl 	receivedWSMs 	0
scalar MyScenario.node[65].appl 	generatedBSMs 	0
scalar MyScenario.node[65].appl 	receivedBSMs 	0
scalar MyScenario.node[65].appl 	generatedWSAs 	0
scalar MyScenario.node[65].appl 	receivedWSAs 	0
scalar MyScenario.node[65].nic.phy80211p 	busyTime 	0
scalar MyScenario.node[65].nic.mac1609_4 	ReceivedUnicastPackets 	0
scalar MyScenario.node[65].nic.mac1609_4 	ReceivedBroadcasts 	0
scalar MyScenario.node[65].nic.mac1609_4 	SentPackets 	0
scalar MyScenario.node[65].nic.mac1609_4 	SNIRLostPackets 	0
scalar MyScenario.node[65].nic.mac1609_4 	RXTXLostPackets 	0
scalar MyScenario.node[65].nic.mac1609_4 	TotalLostPackets 	0
scalar MyScenario.node[65].nic.mac1609_4 	DroppedPacketsInMac 	0
scalar MyScenario.node[65].nic.mac1609_4 	TooLittleTime 	0
scalar MyScenario.node[65].nic.mac1609_4 	TimesIntoBackoff 	0
scalar MyScenario.node[65].nic.mac1609_4 	SlotsBackoff 	0
scalar MyScenario.node[65].nic.mac1609_4 	NumInternalContention 	0
scalar MyScenario.node[65].nic.mac1609_4 	totalBusyTime 	0
scalar MyScenario.node[65].veinsmobility 	startTime 	1
scalar MyScenario.node[65].veinsmobility 	totalTime 	26
scalar MyScenario.node[65].veinsmobility 	stopTime 	28
scalar MyScenario.node[65].veinsmobility 	minSpeed 	1.426621987205
scalar MyScenario.node[65].veinsmobility 	maxSpeed 	13.887303638412
scalar MyScenario.node[65].veinsmobility 	totalDistance 	277.07087281131
scalar MyScenario.node[65].veinsmobility 	totalCO2Emission 	87.513868062483
scalar MyScenario.node[41].appl 	generatedWSMs 	1
scalar MyScenario.node[41].appl 	receivedWSMs 	1
scalar MyScenario.node[41].appl 	generatedBSMs 	0
scalar MyScenario.node[41].appl 	receivedBSMs 	0
scalar MyScenario.node[41].appl 	generatedWSAs 	0
scalar MyScenario.node[41].appl 	receivedWSAs 	0
scalar MyScenario.node[41].nic.phy80211p 	busyTime 	4.1428571428571e-05
scalar MyScenario.node[41].nic.mac1609_4 	ReceivedUnicastPackets 	0
scalar MyScenario.node[41].nic.mac1609_4 	ReceivedBroadcasts 	1
scalar MyScenario.node[41].nic.mac1609_4 	SentPackets 	1
scalar MyScenario.node[41].nic.mac1609_4 	SNIRLostPackets 	4
scalar MyScenario.node[41].nic.mac1609_4 	RXTXLostPackets 	5
scalar MyScenario.node[41].nic.mac1609_4 	TotalLostPackets 	9
scalar MyScenario.node[41].nic.mac1609_4 	DroppedPacketsInMac 	0
scalar MyScenario.node[41].nic.mac1609_4 	TooLittleTime 	0
scalar MyScenario.node[41].nic.mac1609_4 	TimesIntoBackoff 	1
scalar MyScenario.node[41].nic.mac1609_4 	SlotsBackoff 	2
scalar MyScenario.node[41].nic.mac1609_4 	NumInternalContention 	0
scalar MyScenario.node[41].nic.mac1609_4 	totalBusyTime 	0.000929161514
scalar MyScenario.node[41].veinsmobility 	startTime 	1
scalar MyScenario.node[41].veinsmobility 	totalTime 	27
scalar MyScenario.node[41].veinsmobility 	stopTime 	29
scalar MyScenario.node[41].veinsmobility 	minSpeed 	1.5130976005225
scalar MyScenario.node[41].veinsmobility 	maxSpeed 	13.501146869571
scalar MyScenario.node[41].veinsmobility 	totalDistance 	279.6791125381
scalar MyScenario.node[41].veinsmobility 	totalCO2Emission 	95.832085107568
scalar MyScenario.node[86].appl 	generatedWSMs 	1
scalar MyScenario.node[86].appl 	receivedWSMs 	1
scalar MyScenario.node[86].appl 	generatedBSMs 	0
scalar MyScenario.node[86].appl 	receivedBSMs 	0
scalar MyScenario.node[86].appl 	generatedWSAs 	0
scalar MyScenario.node[86].appl 	receivedWSAs 	0
scalar MyScenario.node[86].nic.phy80211p 	busyTime 	7.7333333333333e-05
scalar MyScenario.node[86].nic.mac1609_4 	ReceivedUnicastPackets 	0
scalar MyScenario.node[86].nic.mac1609_4 	ReceivedBroadcasts 	1
scalar MyScenario.node[86].nic.mac1609_4 	SentPackets 	1
scalar MyScenario.node[86].nic.mac1609_4 	SNIRLostPackets 	9
scalar MyScenario.node[86].nic.mac1609_4 	RXTXLostPackets 	1
scalar MyScenario.node[86].nic.mac1609_4 	TotalLostPackets 	10
scalar MyScenario.node[86].nic.mac1609_4 	DroppedPacketsInMac 	0
scalar MyScenario.node[86].nic.mac1609_4 	TooLittleTime 	0
scalar MyScenario.node[86].nic.mac1609_4 	TimesIntoBackoff 	1
scalar MyScenario.node[86].nic.mac1609_4 	SlotsBackoff 	1
scalar MyScenario.node[86].nic.mac1609_4 	NumInternalContention 	0
scalar MyScenario.node[86].nic.mac1609_4 	totalBusyTime 	0.000929
scalar MyScenario.node[86].veinsmobility 	startTime 	1
scalar MyScenario.node[86].veinsmobility 	totalTime 	29
scalar MyScenario.node[86].veinsmobility 	stopTime 	31
scalar MyScenario.node[86].veinsmobility 	minSpeed 	1.3472384067252
scalar MyScenario.node[86].veinsmobility 	maxSpeed 	13.844599290588
scalar MyScenario.node[86].veinsmobility 	totalDistance 	282.00648093436
scalar MyScenario.node[86].veinsmobility 	totalCO2Emission 	112.47926637921
scalar MyScenario.node[38].appl 	generatedWSMs 	0
scalar MyScenario.node[38].appl 	receivedWSMs 	0
scalar MyScenario.node[38].appl 	generatedBSMs 	0
scalar MyScenario.node[38].appl 	receivedBSMs 	0
scalar MyScenario.node[38].appl 	generatedWSAs 	0
scalar MyScenario.node[38].appl 	receivedWSAs 	0
scalar MyScenario.node[38].nic.phy80211p 	busyTime 	0
scalar MyScenario.node[38].nic.mac1609_4 	ReceivedUnicastPackets 	0
scalar MyScenario.node[38].nic.mac1609_4 	ReceivedBroadcasts 	0
scalar MyScenario.node[38].nic.mac1609_4 	SentPackets 	0
scalar MyScenario.node[38].nic.mac1609_4 	SNIRLostPackets 	0
scalar MyScenario.node[38].nic.mac1609_4 	RXTXLostPackets 	0
scalar MyScenario.node[38].nic.mac1609_4 	TotalLostPackets 	0
scalar MyScenario.node[38].nic.mac1609_4 	DroppedPacketsInMac 	0
scalar MyScenario.node[38].nic.mac1609_4 	TooLittleTime 	0
scalar MyScenario.node[38].nic.mac1609_4 	TimesIntoBackoff 	0
scalar MyScenario.node[38].nic.mac1609_4 	SlotsBackoff 	0
scalar MyScenario.node[38].nic.mac1609_4 	NumInternalContention 	0
scalar MyScenario.node[38].nic.mac1609_4 	totalBusyTime 	0
scalar MyScenario.node[38].veinsmobility 	startTime 	1
scalar MyScenario.node[38].veinsmobility 	totalTime 	33
scalar MyScenario.node[38].veinsmobility 	stopTime 	35
scalar MyScenario.node[38].veinsmobility 	minSpeed 	1.9843194504501
scalar MyScenario.node[38].veinsmobility 	maxSpeed 	13.849037008011
scalar MyScenario.node[38].veinsmobility 	totalDistance 	363.97520826602
scalar MyScenario.node[38].veinsmobility 	totalCO2Emission 	108.48675624241
scalar MyScenario.node[83].appl 	generatedWSMs 	1
scalar MyScenario.node[83].appl 	receivedWSMs 	1
scalar MyScenario.node[83].appl 	generatedBSMs 	0
scalar MyScenario.node[83].appl 	receivedBSMs 	0
scalar MyScenario.node[83].appl 	generatedWSAs 	0
scalar MyScenario.node[83].appl 	receivedWSAs 	0
scalar MyScenario.node[83].nic.phy80211p 	busyTime 	6.8235294117647e-06
scalar MyScenario.node[83].nic.mac1609_4 	ReceivedUnicastPackets 	0
scalar MyScenario.node[83].nic.mac1609_4 	ReceivedBroadcasts 	1
scalar MyScenario.node[83].nic.mac1609_4 	SentPackets 	1
scalar MyScenario.node[83].nic.mac1609_4 	SNIRLostPackets 	0
scalar MyScenario.node[83].nic.mac1609_4 	RXTXLostPackets 	7
scalar MyScenario.node[83].nic.mac1609_4 	TotalLostPackets 	7
scalar MyScenario.node[83].nic.mac1609_4 	DroppedPacketsInMac 	0
scalar MyScenario.node[83].nic.mac1609_4 	TooLittleTime 	0
scalar MyScenario.node[83].nic.mac1609_4 	TimesIntoBackoff 	1
scalar MyScenario.node[83].nic.mac1609_4 	SlotsBackoff 	3
scalar MyScenario.node[83].nic.mac1609_4 	NumInternalContention 	0
scalar MyScenario.node[83].nic.mac1609_4 	totalBusyTime 	0.000465
scalar MyScenario.node[83].veinsmobility 	startTime 	1
scalar MyScenario.node[83].veinsmobility 	totalTime 	33
scalar MyScenario.node[83].veinsmobility 	stopTime 	35
scalar MyScenario.node[83].veinsmobility 	minSpeed 	1.3719304058002
scalar MyScenario.node[83].veinsmobility 	maxSpeed 	13.780061778962
scalar MyScenario.node[83].veinsmobility 	totalDistance 	366.69607710099
scalar MyScenario.node[83].veinsmobility 	totalCO2Emission 	104.86808361995
scalar MyScenario.node[66].appl 	generatedWSMs 	0
scalar MyScenario.node[66].appl 	receivedWSMs 	0
scalar MyScenario.node[66].appl 	generatedBSMs 	0
scalar MyScenario.node[66].appl 	receivedBSMs 	0
scalar MyScenario.node[66].appl 	generatedWSAs 	0
scalar MyScenario.node[66].appl 	receivedWSAs 	0
scalar MyScenario.node[66].nic.phy80211p 	busyTime 	0
scalar MyScenario.node[66].nic.mac1609_4 	ReceivedUnicastPackets 	0
scalar MyScenario.node[66].nic.mac1609_4 	ReceivedBroadcasts 	0
scalar MyScenario.node[66].nic.mac1609_4 	SentPackets 	0
scalar MyScenario.node[66].nic.mac1609_4 	SNIRLostPackets 	0
scalar MyScenario.node[66].nic.mac1609_4 	RXTXLostPackets 	0
scalar MyScenario.node[66].nic.mac1609_4 	TotalLostPackets 	0
scalar MyScenario.node[66].nic.mac1609_4 	DroppedPacketsInMac 	0
scalar MyScenario.node[66].nic.mac1609_4 	TooLittleTime 	0
scalar MyScenario.node[66].nic.mac1609_4 	TimesIntoBackoff 	0
scalar MyScenario.node[66].nic.mac1609_4 	SlotsBackoff 	0
scalar MyScenario.node[66].nic.mac1609_4 	NumInternalContention 	0
scalar MyScenario.node[66].nic.mac1609_4 	totalBusyTime 	0
scalar MyScenario.node[66].veinsmobility 	startTime 	1
scalar MyScenario.node[66].veinsmobility 	totalTime 	33
scalar MyScenario.node[66].veinsmobility 	stopTime 	35
scalar MyScenario.node[66].veinsmobility 	minSpeed 	2.5755732625723
scalar MyScenario.node[66].veinsmobility 	maxSpeed 	13.894981541368
scalar MyScenario.node[66].veinsmobility 	totalDistance 	375.9124167821
scalar MyScenario.node[66].veinsmobility 	totalCO2Emission 	105.66202172152
scalar MyScenario.node[98].appl 	generatedWSMs 	0
scalar MyScenario.node[98].appl 	receivedWSMs 	0
scalar MyScenario.node[98].appl 	generatedBSMs 	0
scalar MyScenario.node[98].appl 	receivedBSMs 	0
scalar MyScenario.node[98].appl 	generatedWSAs 	0
scalar MyScenario.node[98].appl 	receivedWSAs 	0
scalar MyScenario.node[98].nic.phy80211p 	busyTime 	0
scalar MyScenario.node[98].nic.mac1609_4 	ReceivedUnicastPackets 	0
scalar MyScenario.node[98].nic.mac1609_4 	ReceivedBroadcasts 	0
scalar MyScenario.node[98].nic.mac1609_4 	SentPackets 	0
scalar MyScenario.node[98].nic.mac1609_4 	SNIRLostPackets 	0
scalar MyScenario.node[98].nic.mac1609_4 	RXTXLostPackets 	0
scalar MyScenario.node[98].nic.mac1609_4 	TotalLostPackets 	0
scalar MyScenario.node[98].nic.mac1609_4 	DroppedPacketsInMac 	0
scalar MyScenario.node[98].nic.mac1609_4 	TooLittleTime 	0
scalar MyScenario.node[98].nic.mac1609_4 	TimesIntoBackoff 	0
scalar MyScenario.node[98].nic.mac1609_4 	SlotsBackoff 	0
scalar MyScenario.node[98].nic.mac1609_4 	NumInternalContention 	0
scalar MyScenario.node[98].nic.mac1609_4 	totalBusyTime 	0
scalar MyScenario.node[98].veinsmobility 	startTime 	4
scalar MyScenario.node[98].veinsmobility 	totalTime 	31
scalar MyScenario.node[98].veinsmobility 	stopTime 	36
scalar MyScenario.node[98].veinsmobility 	minSpeed 	2.3000349559123
scalar MyScenario.node[98].veinsmobility 	maxSpeed 	13.898430156172
scalar MyScenario.node[98].veinsmobility 	totalDistance 	368.41893365045
scalar MyScenario.node[98].veinsmobility 	totalCO2Emission 	90.84675375376
scalar MyScenario.node[22].appl 	generatedWSMs 	0
scalar MyScenario.node[22].appl 	receivedWSMs 	0
scalar MyScenario.node[22].appl 	generatedBSMs 	0
scalar MyScenario.node[22].appl 	receivedBSMs 	0
scalar MyScenario.node[22].appl 	generatedWSAs 	0
scalar MyScenario.node[22].appl 	receivedWSAs 	0
scalar MyScenario.node[22].nic.phy80211p 	busyTime 	5.3028571428571e-05
scalar MyScenario.node[22].nic.mac1609_4 	ReceivedUnicastPackets 	0
scalar MyScenario.node[22].nic.mac1609_4 	ReceivedBroadcasts 	0
scalar MyScenario.node[22].nic.mac1609_4 	SentPackets 	0
scalar MyScenario.node[22].nic.mac1609_4 	SNIRLostPackets 	8
scalar MyScenario.node[22].nic.mac1609_4 	RXTXLostPackets 	0
scalar MyScenario.node[22].nic.mac1609_4 	TotalLostPackets 	8
scalar MyScenario.node[22].nic.mac1609_4 	DroppedPacketsInMac 	0
scalar MyScenario.node[22].nic.mac1609_4 	TooLittleTime 	0
scalar MyScenario.node[22].nic.mac1609_4 	TimesIntoBackoff 	0
scalar MyScenario.node[22].nic.mac1609_4 	SlotsBackoff 	0
scalar MyScenario.node[22].nic.mac1609_4 	NumInternalContention 	0
scalar MyScenario.node[22].nic.mac1609_4 	totalBusyTime 	0.000464
scalar MyScenario.node[22].veinsmobility 	startTime 	1
scalar MyScenario.node[22].veinsmobility 	totalTime 	34
scalar MyScenario.node[22].veinsmobility 	stopTime 	36
scalar MyScenario.node[22].veinsmobility 	minSpeed 	2.0893797688885
scalar MyScenario.node[22].veinsmobility 	maxSpeed 	13.876900720992
scalar MyScenario.node[22].veinsmobility 	totalDistance 	376.14539578969
scalar MyScenario.node[22].veinsmobility 	totalCO2Emission 	107.38964982065
scalar MyScenario.node[44].appl 	generatedWSMs 	1
scalar MyScenario.node[44].appl 	receivedWSMs 	2
scalar MyScenario.node[44].appl 	generatedBSMs 	0
scalar MyScenario.node[44].appl 	receivedBSMs 	0
scalar MyScenario.node[44].appl 	generatedWSAs 	0
scalar MyScenario.node[44].appl 	receivedWSAs 	0
scalar MyScenario.node[44].nic.phy80211p 	busyTime 	8.5473684210526e-05
scalar MyScenario.node[44].nic.mac1609_4 	ReceivedUnicastPackets 	0
scalar MyScenario.node[44].nic.mac1609_4 	ReceivedBroadcasts 	2
scalar MyScenario.node[44].nic.mac1609_4 	SentPackets 	1
scalar MyScenario.node[44].nic.mac1609_4 	SNIRLostPackets 	12
scalar MyScenario.node[44].nic.mac1609_4 	RXTXLostPackets 	1
scalar MyScenario.node[44].nic.mac1609_4 	TotalLostPackets 	13
scalar MyScenario.node[44].nic.mac1609_4 	DroppedPacketsInMac 	0
scalar MyScenario.node[44].nic.mac1609_4 	TooLittleTime 	0
scalar MyScenario.node[44].nic.mac1609_4 	TimesIntoBackoff 	1
scalar MyScenario.node[44].nic.mac1609_4 	SlotsBackoff 	1
scalar MyScenario.node[44].nic.mac1609_4 	NumInternalContention 	0
scalar MyScenario.node[44].nic.mac1609_4 	totalBusyTime 	0.001393
scalar MyScenario.node[44].veinsmobility 	startTime 	1
scalar MyScenario.node[44].veinsmobility 	totalTime 	37
scalar MyScenario.node[44].veinsmobility 	stopTime 	39
scalar MyScenario.node[44].veinsmobility 	minSpeed 	2.121286001429
scalar MyScenario.node[44].veinsmobility 	maxSpeed 	13.666436423949
scalar MyScenario.node[44].veinsmobility 	totalDistance 	379.06526347953
scalar MyScenario.node[44].veinsmobility 	totalCO2Emission 	145.04016902086
scalar MyScenario.node[88].appl 	generatedWSMs 	0
scalar MyScenario.node[88].appl 	receivedWSMs 	0
scalar MyScenario.node[88].appl 	generatedBSMs 	0
scalar MyScenario.node[88].appl 	receivedBSMs 	0
scalar MyScenario.node[88].appl 	generatedWSAs 	0
scalar MyScenario.node[88].appl 	receivedWSAs 	0
scalar MyScenario.node[88].nic.phy80211p 	busyTime 	0
scalar MyScenario.node[88].nic.mac1609_4 	ReceivedUnicastPackets 	0
scalar MyScenario.node[88].nic.mac1609_4 	ReceivedBroadcasts 	0
scalar MyScenario.node[88].nic.mac1609_4 	SentPackets 	0
scalar MyScenario.node[88].nic.mac1609_4 	SNIRLostPackets 	0
scalar MyScenario.node[88].nic.mac1609_4 	RXTXLostPackets 	0
scalar MyScenario.node[88].nic.mac1609_4 	TotalLostPackets 	0
scalar MyScenario.node[88].nic.mac1609_4 	DroppedPacketsInMac 	0
scalar MyScenario.node[88].nic.mac1609_4 	TooLittleTime 	0
scalar MyScenario.node[88].nic.mac1609_4 	TimesIntoBackoff 	0
scalar MyScenario.node[88].nic.mac1609_4 	SlotsBackoff 	0
scalar MyScenario.node[88].nic.mac1609_4 	NumInternalContention 	0
scalar MyScenario.node[88].nic.mac1609_4 	totalBusyTime 	0
scalar MyScenario.node[88].veinsmobility 	startTime 	1
scalar MyScenario.node[88].veinsmobility 	totalTime 	40
scalar MyScenario.node[88].veinsmobility 	stopTime 	42
scalar MyScenario.node[88].veinsmobility 	minSpeed 	2.0070045632543
scalar MyScenario.node[88].veinsmobility 	maxSpeed 	13.841195165482
scalar MyScenario.node[88].veinsmobility 	totalDistance 	469.80861082634
scalar MyScenario.node[88].veinsmobility 	totalCO2Emission 	119.16663245507
scalar MyScenario.node[78].appl 	generatedWSMs 	0
scalar MyScenario.node[78].appl 	receivedWSMs 	0
scalar MyScenario.node[78].appl 	generatedBSMs 	0
scalar MyScenario.node[78].appl 	receivedBSMs 	0
scalar MyScenario.node[78].appl 	generatedWSAs 	0
scalar MyScenario.node[78].appl 	receivedWSAs 	0
scalar MyScenario.node[78].nic.phy80211p 	busyTime 	2.7619047619048e-05
scalar MyScenario.node[78].nic.mac1609_4 	ReceivedUnicastPackets 	0
scalar MyScenario.node[78].nic.mac1609_4 	ReceivedBroadcasts 	0
scalar MyScenario.node[78].nic.mac1609_4 	SentPackets 	0
scalar MyScenario.node[78].nic.mac1609_4 	SNIRLostPackets 	5
scalar MyScenario.node[78].nic.mac1609_4 	RXTXLostPackets 	0
scalar MyScenario.node[78].nic.mac1609_4 	TotalLostPackets 	5
scalar MyScenario.node[78].nic.mac1609_4 	DroppedPacketsInMac 	0
scalar MyScenario.node[78].nic.mac1609_4 	TooLittleTime 	0
scalar MyScenario.node[78].nic.mac1609_4 	TimesIntoBackoff 	0
scalar MyScenario.node[78].nic.mac1609_4 	SlotsBackoff 	0
scalar MyScenario.node[78].nic.mac1609_4 	NumInternalContention 	0
scalar MyScenario.node[78].nic.mac1609_4 	totalBusyTime 	0.000464
scalar MyScenario.node[78].veinsmobility 	startTime 	1
scalar MyScenario.node[78].veinsmobility 	totalTime 	41
scalar MyScenario.node[78].veinsmobility 	stopTime 	43
scalar MyScenario.node[78].veinsmobility 	minSpeed 	0.078507970030028
scalar MyScenario.node[78].veinsmobility 	maxSpeed 	13.887930220179
scalar MyScenario.node[78].veinsmobility 	totalDistance 	372.18273387183
scalar MyScenario.node[78].veinsmobility 	totalCO2Emission 	156.94950803292
scalar MyScenario.node[47].appl 	generatedWSMs 	0
scalar MyScenario.node[47].appl 	receivedWSMs 	0
scalar MyScenario.node[47].appl 	generatedBSMs 	0
scalar MyScenario.node[47].appl 	receivedBSMs 	0
scalar MyScenario.node[47].appl 	generatedWSAs 	0
scalar MyScenario.node[47].appl 	receivedWSAs 	0
scalar MyScenario.node[47].nic.phy80211p 	busyTime 	5.3953488372093e-06
scalar MyScenario.node[47].nic.mac1609_4 	ReceivedUnicastPackets 	0
scalar MyScenario.node[47].nic.mac1609_4 	ReceivedBroadcasts 	0
scalar MyScenario.node[47].nic.mac1609_4 	SentPackets 	0
scalar MyScenario.node[47].nic.mac1609_4 	SNIRLostPackets 	1
scalar MyScenario.node[47].nic.mac1609_4 	RXTXLostPackets 	0
scalar MyScenario.node[47].nic.mac1609_4 	TotalLostPackets 	1
scalar MyScenario.node[47].nic.mac1609_4 	DroppedPacketsInMac 	0
scalar MyScenario.node[47].nic.mac1609_4 	TooLittleTime 	0
scalar MyScenario.node[47].nic.mac1609_4 	TimesIntoBackoff 	0
scalar MyScenario.node[47].nic.mac1609_4 	SlotsBackoff 	0
scalar MyScenario.node[47].nic.mac1609_4 	NumInternalContention 	0
scalar MyScenario.node[47].nic.mac1609_4 	totalBusyTime 	0.000232
scalar MyScenario.node[47].veinsmobility 	startTime 	1
scalar MyScenario.node[47].veinsmobility 	totalTime 	42
scalar MyScenario.node[47].veinsmobility 	stopTime 	44
scalar MyScenario.node[47].veinsmobility 	minSpeed 	3.8485650518093e-06
scalar MyScenario.node[47].veinsmobility 	maxSpeed 	13.860140636517
scalar MyScenario.node[47].veinsmobility 	totalDistance 	375.39177559731
scalar MyScenario.node[47].veinsmobility 	totalCO2Emission 	134.74240974792
scalar MyScenario.node[81].appl 	generatedWSMs 	0
scalar MyScenario.node[81].appl 	receivedWSMs 	0
scalar MyScenario.node[81].appl 	generatedBSMs 	0
scalar MyScenario.node[81].appl 	receivedBSMs 	0
scalar MyScenario.node[81].appl 	generatedWSAs 	0
scalar MyScenario.node[81].appl 	receivedWSAs 	0
scalar MyScenario.node[81].nic.phy80211p 	busyTime 	0
scalar MyScenario.node[81].nic.mac1609_4 	ReceivedUnicastPackets 	0
scalar MyScenario.node[81].nic.mac1609_4 	ReceivedBroadcasts 	0
scalar MyScenario.node[81].nic.mac1609_4 	SentPackets 	0
scalar MyScenario.node[81].nic.mac1609_4 	SNIRLostPackets 	0
scalar MyScenario.node[81].nic.mac1609_4 	RXTXLostPackets 	0
scalar MyScenario.node[81].nic.mac1609_4 	TotalLostPackets 	0
scalar MyScenario.node[81].nic.mac1609_4 	DroppedPacketsInMac 	0
scalar MyScenario.node[81].nic.mac1609_4 	TooLittleTime 	0
scalar MyScenario.node[81].nic.mac1609_4 	TimesIntoBackoff 	0
scalar MyScenario.node[81].nic.mac1609_4 	SlotsBackoff 	0
scalar MyScenario.node[81].nic.mac1609_4 	NumInternalContention 	0
scalar MyScenario.node[81].nic.mac1609_4 	totalBusyTime 	0
scalar MyScenario.node[81].veinsmobility 	startTime 	1
scalar MyScenario.node[81].veinsmobility 	totalTime 	42
scalar MyScenario.node[81].veinsmobility 	stopTime 	44
scalar MyScenario.node[81].veinsmobility 	minSpeed 	2.0150650135707
scalar MyScenario.node[81].veinsmobility 	maxSpeed 	13.763715527742
scalar MyScenario.node[81].veinsmobility 	totalDistance 	470.55058813624
scalar MyScenario.node[81].veinsmobility 	totalCO2Emission 	140.29415342684
scalar MyScenario.node[87].appl 	generatedWSMs 	1
scalar MyScenario.node[87].appl 	receivedWSMs 	2
scalar MyScenario.node[87].appl 	generatedBSMs 	0
scalar MyScenario.node[87].appl 	receivedBSMs 	0
scalar MyScenario.node[87].appl 	generatedWSAs 	0
scalar MyScenario.node[87].appl 	receivedWSAs 	0
scalar MyScenario.node[87].nic.phy80211p 	busyTime 	2.6363636363636e-05
scalar MyScenario.node[87].nic.mac1609_4 	ReceivedUnicastPackets 	0
scalar MyScenario.node[87].nic.mac1609_4 	ReceivedBroadcasts 	2
scalar MyScenario.node[87].nic.mac1609_4 	SentPackets 	1
scalar MyScenario.node[87].nic.mac1609_4 	SNIRLostPackets 	3
scalar MyScenario.node[87].nic.mac1609_4 	RXTXLostPackets 	5
scalar MyScenario.node[87].nic.mac1609_4 	TotalLostPackets 	8
scalar MyScenario.node[87].nic.mac1609_4 	DroppedPacketsInMac 	0
scalar MyScenario.node[87].nic.mac1609_4 	TooLittleTime 	0
scalar MyScenario.node[87].nic.mac1609_4 	TimesIntoBackoff 	1
scalar MyScenario.node[87].nic.mac1609_4 	SlotsBackoff 	1
scalar MyScenario.node[87].nic.mac1609_4 	NumInternalContention 	0
scalar MyScenario.node[87].nic.mac1609_4 	totalBusyTime 	0.000929022899
scalar MyScenario.node[87].veinsmobility 	startTime 	1
scalar MyScenario.node[87].veinsmobility 	totalTime 	43
scalar MyScenario.node[87].veinsmobility 	stopTime 	45
scalar MyScenario.node[87].veinsmobility 	minSpeed 	2.5076531236758
scalar MyScenario.node[87].veinsmobility 	maxSpeed 	13.899290237878
scalar MyScenario.node[87].veinsmobility 	totalDistance 	465.87773817952
scalar MyScenario.node[87].veinsmobility 	totalCO2Emission 	161.17714443169
scalar MyScenario.node[69].appl 	generatedWSMs 	0
scalar MyScenario.node[69].appl 	receivedWSMs 	0
scalar MyScenario.node[69].appl 	generatedBSMs 	0
scalar MyScenario.node[69].appl 	receivedBSMs 	0
scalar MyScenario.node[69].appl 	generatedWSAs 	0
scalar MyScenario.node[69].appl 	receivedWSAs 	0
scalar MyScenario.node[69].nic.phy80211p 	busyTime 	0
scalar MyScenario.node[69].nic.mac1609_4 	ReceivedUnicastPackets 	0
scalar MyScenario.node[69].nic.mac1609_4 	ReceivedBroadcasts 	0
scalar MyScenario.node[69].nic.mac1609_4 	SentPackets 	0
scalar MyScenario.node[69].nic.mac1609_4 	SNIRLostPackets 	0
scalar MyScenario.node[69].nic.mac1609_4 	RXTXLostPackets 	0
scalar MyScenario.node[69].nic.mac1609_4 	TotalLostPackets 	0
scalar MyScenario.node[69].nic.mac1609_4 	DroppedPacketsInMac 	0
scalar MyScenario.node[69].nic.mac1609_4 	TooLittleTime 	0
scalar MyScenario.node[69].nic.mac1609_4 	TimesIntoBackoff 	0
scalar MyScenario.node[69].nic.mac1609_4 	SlotsBackoff 	0
scalar MyScenario.node[69].nic.mac1609_4 	NumInternalContention 	0
scalar MyScenario.node[69].nic.mac1609_4 	totalBusyTime 	0
scalar MyScenario.node[69].veinsmobility 	startTime 	1
scalar MyScenario.node[69].veinsmobility 	totalTime 	44
scalar MyScenario.node[69].veinsmobility 	stopTime 	46
scalar MyScenario.node[69].veinsmobility 	minSpeed 	1.7970738488948
scalar MyScenario.node[69].veinsmobility 	maxSpeed 	13.860445532575
scalar MyScenario.node[69].veinsmobility 	totalDistance 	481.15684260972
scalar MyScenario.node[69].veinsmobility 	totalCO2Emission 	149.08689972072
scalar MyScenario.node[92].appl 	generatedWSMs 	0
scalar MyScenario.node[92].appl 	receivedWSMs 	0
scalar MyScenario.node[92].appl 	generatedBSMs 	0
scalar MyScenario.node[92].appl 	receivedBSMs 	0
scalar MyScenario.node[92].appl 	generatedWSAs 	0
scalar MyScenario.node[92].appl 	receivedWSAs 	0
scalar MyScenario.node[92].nic.phy80211p 	busyTime 	0
scalar MyScenario.node[92].nic.mac1609_4 	ReceivedUnicastPackets 	0
scalar MyScenario.node[92].nic.mac1609_4 	ReceivedBroadcasts 	0
scalar MyScenario.node[92].nic.mac1609_4 	SentPackets 	0
scalar MyScenario.node[92].nic.mac1609_4 	SNIRLostPackets 	0
scalar MyScenario.node[92].nic.mac1609_4 	RXTXLostPackets 	0
scalar MyScenario.node[92].nic.mac1609_4 	TotalLostPackets 	0
scalar MyScenario.node[92].nic.mac1609_4 	DroppedPacketsInMac 	0
scalar MyScenario.node[92].nic.mac1609_4 	TooLittleTime 	0
scalar MyScenario.node[92].nic.mac1609_4 	TimesIntoBackoff 	0
scalar MyScenario.node[92].nic.mac1609_4 	SlotsBackoff 	0
scalar MyScenario.node[92].nic.mac1609_4 	NumInternalContention 	0
scalar MyScenario.node[92].nic.mac1609_4 	totalBusyTime 	0
scalar MyScenario.node[92].veinsmobility 	startTime 	4
scalar MyScenario.node[92].veinsmobility 	totalTime 	41
scalar MyScenario.node[92].veinsmobility 	stopTime 	46
scalar MyScenario.node[92].veinsmobility 	minSpeed 	2.578383639711
scalar MyScenario.node[92].veinsmobility 	maxSpeed 	13.894981967239
scalar MyScenario.node[92].veinsmobility 	totalDistance 	479.01998477708
scalar MyScenario.node[92].veinsmobility 	totalCO2Emission 	137.85926094594
scalar MyScenario.node[36].appl 	generatedWSMs 	1
scalar MyScenario.node[36].appl 	receivedWSMs 	2
scalar MyScenario.node[36].appl 	generatedBSMs 	0
scalar MyScenario.node[36].appl 	receivedBSMs 	0
scalar MyScenario.node[36].appl 	generatedWSAs 	0
scalar MyScenario.node[36].appl 	receivedWSAs 	0
scalar MyScenario.node[36].nic.phy80211p 	busyTime 	3.0933333333333e-05
scalar MyScenario.node[36].nic.mac1609_4 	ReceivedUnicastPackets 	0
scalar MyScenario.node[36].nic.mac1609_4 	ReceivedBroadcasts 	2
scalar MyScenario.node[36].nic.mac1609_4 	SentPackets 	1
scalar MyScenario.node[36].nic.mac1609_4 	SNIRLostPackets 	4
scalar MyScenario.node[36].nic.mac1609_4 	RXTXLostPackets 	5
scalar MyScenario.node[36].nic.mac1609_4 	TotalLostPackets 	9
scalar MyScenario.node[36].nic.mac1609_4 	DroppedPacketsInMac 	0
scalar MyScenario.node[36].nic.mac1609_4 	TooLittleTime 	0
scalar MyScenario.node[36].nic.mac1609_4 	TimesIntoBackoff 	1
scalar MyScenario.node[36].nic.mac1609_4 	SlotsBackoff 	1
scalar MyScenario.node[36].nic.mac1609_4 	NumInternalContention 	0
scalar MyScenario.node[36].nic.mac1609_4 	totalBusyTime 	0.001161034484
scalar MyScenario.node[36].veinsmobility 	startTime 	1
scalar MyScenario.node[36].veinsmobility 	totalTime 	44
scalar MyScenario.node[36].veinsmobility 	stopTime 	46
scalar MyScenario.node[36].veinsmobility 	minSpeed 	1.3967243768042
scalar MyScenario.node[36].veinsmobility 	maxSpeed 	13.73183750466
scalar MyScenario.node[36].veinsmobility 	totalDistance 	480.43241997888
scalar MyScenario.node[36].veinsmobility 	totalCO2Emission 	157.11759167133
scalar MyScenario.node[97].appl 	generatedWSMs 	0
scalar MyScenario.node[97].appl 	receivedWSMs 	0
scalar MyScenario.node[97].appl 	generatedBSMs 	0
scalar MyScenario.node[97].appl 	receivedBSMs 	0
scalar MyScenario.node[97].appl 	generatedWSAs 	0
scalar MyScenario.node[97].appl 	receivedWSAs 	0
scalar MyScenario.node[97].nic.phy80211p 	busyTime 	0
scalar MyScenario.node[97].nic.mac1609_4 	ReceivedUnicastPackets 	0
scalar MyScenario.node[97].nic.mac1609_4 	ReceivedBroadcasts 	0
scalar MyScenario.node[97].nic.mac1609_4 	SentPackets 	0
scalar MyScenario.node[97].nic.mac1609_4 	SNIRLostPackets 	0
scalar MyScenario.node[97].nic.mac1609_4 	RXTXLostPackets 	0
scalar MyScenario.node[97].nic.mac1609_4 	TotalLostPackets 	0
scalar MyScenario.node[97].nic.mac1609_4 	DroppedPacketsInMac 	0
scalar MyScenario.node[97].nic.mac1609_4 	TooLittleTime 	0
scalar MyScenario.node[97].nic.mac1609_4 	TimesIntoBackoff 	0
scalar MyScenario.node[97].nic.mac1609_4 	SlotsBackoff 	0
scalar MyScenario.node[97].nic.mac1609_4 	NumInternalContention 	0
scalar MyScenario.node[97].nic.mac1609_4 	totalBusyTime 	0
scalar MyScenario.node[97].veinsmobility 	startTime 	4
scalar MyScenario.node[97].veinsmobility 	totalTime 	42
scalar MyScenario.node[97].veinsmobility 	stopTime 	47
scalar MyScenario.node[97].veinsmobility 	minSpeed 	2.0706617130199
scalar MyScenario.node[97].veinsmobility 	maxSpeed 	13.895177295012
scalar MyScenario.node[97].veinsmobility 	totalDistance 	467.16207403341
scalar MyScenario.node[97].veinsmobility 	totalCO2Emission 	146.04374004771
scalar MyScenario.node[89].appl 	generatedWSMs 	0
scalar MyScenario.node[89].appl 	receivedWSMs 	0
scalar MyScenario.node[89].appl 	generatedBSMs 	0
scalar MyScenario.node[89].appl 	receivedBSMs 	0
scalar MyScenario.node[89].appl 	generatedWSAs 	0
scalar MyScenario.node[89].appl 	receivedWSAs 	0
scalar MyScenario.node[89].nic.phy80211p 	busyTime 	2.6976744186047e-05
scalar MyScenario.node[89].nic.mac1609_4 	ReceivedUnicastPackets 	0
scalar MyScenario.node[89].nic.mac1609_4 	ReceivedBroadcasts 	0
scalar MyScenario.node[89].nic.mac1609_4 	SentPackets 	0
scalar MyScenario.node[89].nic.mac1609_4 	SNIRLostPackets 	5
scalar MyScenario.node[89].nic.mac1609_4 	RXTXLostPackets 	0
scalar MyScenario.node[89].nic.mac1609_4 	TotalLostPackets 	5
scalar MyScenario.node[89].nic.mac1609_4 	DroppedPacketsInMac 	0
scalar MyScenario.node[89].nic.mac1609_4 	TooLittleTime 	0
scalar MyScenario.node[89].nic.mac1609_4 	TimesIntoBackoff 	0
scalar MyScenario.node[89].nic.mac1609_4 	SlotsBackoff 	0
scalar MyScenario.node[89].nic.mac1609_4 	NumInternalContention 	0
scalar MyScenario.node[89].nic.mac1609_4 	totalBusyTime 	0.000464
scalar MyScenario.node[89].veinsmobility 	startTime 	4
scalar MyScenario.node[89].veinsmobility 	totalTime 	42
scalar MyScenario.node[89].veinsmobility 	stopTime 	47
scalar MyScenario.node[89].veinsmobility 	minSpeed 	1.4975893045077
scalar MyScenario.node[89].veinsmobility 	maxSpeed 	13.893776405859
scalar MyScenario.node[89].veinsmobility 	totalDistance 	464.17814163956
scalar MyScenario.node[89].veinsmobility 	totalCO2Emission 	136.4403247059
scalar MyScenario.node[75].appl 	generatedWSMs 	1
scalar MyScenario.node[75].appl 	receivedWSMs 	7
scalar MyScenario.node[75].appl 	generatedBSMs 	0
scalar MyScenario.node[75].appl 	receivedBSMs 	0
scalar MyScenario.node[75].appl 	generatedWSAs 	0
scalar MyScenario.node[75].appl 	receivedWSAs 	0
scalar MyScenario.node[75].nic.phy80211p 	busyTime 	6.0521739130435e-05
scalar MyScenario.node[75].nic.mac1609_4 	ReceivedUnicastPackets 	0
scalar MyScenario.node[75].nic.mac1609_4 	ReceivedBroadcasts 	7
scalar MyScenario.node[75].nic.mac1609_4 	SentPackets 	1
scalar MyScenario.node[75].nic.mac1609_4 	SNIRLostPackets 	5
scalar MyScenario.node[75].nic.mac1609_4 	RXTXLostPackets 	7
scalar MyScenario.node[75].nic.mac1609_4 	TotalLostPackets 	12
scalar MyScenario.node[75].nic.mac1609_4 	DroppedPacketsInMac 	0
scalar MyScenario.node[75].nic.mac1609_4 	TooLittleTime 	0
scalar MyScenario.node[75].nic.mac1609_4 	TimesIntoBackoff 	1
scalar MyScenario.node[75].nic.mac1609_4 	SlotsBackoff 	3
scalar MyScenario.node[75].nic.mac1609_4 	NumInternalContention 	0
scalar MyScenario.node[75].nic.mac1609_4 	totalBusyTime 	0.002321
scalar MyScenario.node[75].veinsmobility 	startTime 	1
scalar MyScenario.node[75].veinsmobility 	totalTime 	45
scalar MyScenario.node[75].veinsmobility 	stopTime 	47
scalar MyScenario.node[75].veinsmobility 	minSpeed 	1.8433742713882
scalar MyScenario.node[75].veinsmobility 	maxSpeed 	13.887812262215
scalar MyScenario.node[75].veinsmobility 	totalDistance 	472.43833264506
scalar MyScenario.node[75].veinsmobility 	totalCO2Emission 	158.26653112264
scalar MyScenario.node[93].appl 	generatedWSMs 	1
scalar MyScenario.node[93].appl 	receivedWSMs 	1
scalar MyScenario.node[93].appl 	generatedBSMs 	0
scalar MyScenario.node[93].appl 	receivedBSMs 	0
scalar MyScenario.node[93].appl 	generatedWSAs 	0
scalar MyScenario.node[93].appl 	receivedWSAs 	0
scalar MyScenario.node[93].nic.phy80211p 	busyTime 	7.9090909090909e-05
scalar MyScenario.node[93].nic.mac1609_4 	ReceivedUnicastPackets 	0
scalar MyScenario.node[93].nic.mac1609_4 	ReceivedBroadcasts 	1
scalar MyScenario.node[93].nic.mac1609_4 	SentPackets 	1
scalar MyScenario.node[93].nic.mac1609_4 	SNIRLostPackets 	14
scalar MyScenario.node[93].nic.mac1609_4 	RXTXLostPackets 	0
scalar MyScenario.node[93].nic.mac1609_4 	TotalLostPackets 	14
scalar MyScenario.node[93].nic.mac1609_4 	DroppedPacketsInMac 	0
scalar MyScenario.node[93].nic.mac1609_4 	TooLittleTime 	0
scalar MyScenario.node[93].nic.mac1609_4 	TimesIntoBackoff 	1
scalar MyScenario.node[93].nic.mac1609_4 	SlotsBackoff 	1
scalar MyScenario.node[93].nic.mac1609_4 	NumInternalContention 	0
scalar MyScenario.node[93].nic.mac1609_4 	totalBusyTime 	0.001161
scalar MyScenario.node[93].veinsmobility 	startTime 	4
scalar MyScenario.node[93].veinsmobility 	totalTime 	43
scalar MyScenario.node[93].veinsmobility 	stopTime 	48
scalar MyScenario.node[93].veinsmobility 	minSpeed 	1.4714361212449
scalar MyScenario.node[93].veinsmobility 	maxSpeed 	13.887977611064
scalar MyScenario.node[93].veinsmobility 	totalDistance 	477.72547671797
scalar MyScenario.node[93].veinsmobility 	totalCO2Emission 	136.44250129522
scalar MyScenario.node[6].appl 	generatedWSMs 	0
scalar MyScenario.node[6].appl 	receivedWSMs 	0
scalar MyScenario.node[6].appl 	generatedBSMs 	0
scalar MyScenario.node[6].appl 	receivedBSMs 	0
scalar MyScenario.node[6].appl 	generatedWSAs 	0
scalar MyScenario.node[6].appl 	receivedWSAs 	0
scalar MyScenario.node[6].nic.phy80211p 	busyTime 	0
scalar MyScenario.node[6].nic.mac1609_4 	ReceivedUnicastPackets 	0
scalar MyScenario.node[6].nic.mac1609_4 	ReceivedBroadcasts 	0
scalar MyScenario.node[6].nic.mac1609_4 	SentPackets 	0
scalar MyScenario.node[6].nic.mac1609_4 	SNIRLostPackets 	0
scalar MyScenario.node[6].nic.mac1609_4 	RXTXLostPackets 	0
scalar MyScenario.node[6].nic.mac1609_4 	TotalLostPackets 	0
scalar MyScenario.node[6].nic.mac1609_4 	DroppedPacketsInMac 	0
scalar MyScenario.node[6].nic.mac1609_4 	TooLittleTime 	0
scalar MyScenario.node[6].nic.mac1609_4 	TimesIntoBackoff 	0
scalar MyScenario.node[6].nic.mac1609_4 	SlotsBackoff 	0
scalar MyScenario.node[6].nic.mac1609_4 	NumInternalContention 	0
scalar MyScenario.node[6].nic.mac1609_4 	totalBusyTime 	0
scalar MyScenario.node[6].veinsmobility 	startTime 	1
scalar MyScenario.node[6].veinsmobility 	totalTime 	47
scalar MyScenario.node[6].veinsmobility 	stopTime 	49
scalar MyScenario.node[6].veinsmobility 	minSpeed 	0.0046313070824221
scalar MyScenario.node[6].veinsmobility 	maxSpeed 	13.875140233058
scalar MyScenario.node[6].veinsmobility 	totalDistance 	480.92384490128
scalar MyScenario.node[6].veinsmobility 	totalCO2Emission 	164.61574173293
scalar MyScenario.node[85].appl 	generatedWSMs 	1
scalar MyScenario.node[85].appl 	receivedWSMs 	1
scalar MyScenario.node[85].appl 	generatedBSMs 	0
scalar MyScenario.node[85].appl 	receivedBSMs 	0
scalar MyScenario.node[85].appl 	generatedWSAs 	0
scalar MyScenario.node[85].appl 	receivedWSAs 	0
scalar MyScenario.node[85].nic.phy80211p 	busyTime 	2.9e-05
scalar MyScenario.node[85].nic.mac1609_4 	ReceivedUnicastPackets 	0
scalar MyScenario.node[85].nic.mac1609_4 	ReceivedBroadcasts 	1
scalar MyScenario.node[85].nic.mac1609_4 	SentPackets 	1
scalar MyScenario.node[85].nic.mac1609_4 	SNIRLostPackets 	5
scalar MyScenario.node[85].nic.mac1609_4 	RXTXLostPackets 	6
scalar MyScenario.node[85].nic.mac1609_4 	TotalLostPackets 	11
scalar MyScenario.node[85].nic.mac1609_4 	DroppedPacketsInMac 	0
scalar MyScenario.node[85].nic.mac1609_4 	TooLittleTime 	0
scalar MyScenario.node[85].nic.mac1609_4 	TimesIntoBackoff 	1
scalar MyScenario.node[85].nic.mac1609_4 	SlotsBackoff 	1
scalar MyScenario.node[85].nic.mac1609_4 	NumInternalContention 	0
scalar MyScenario.node[85].nic.mac1609_4 	totalBusyTime 	0.000929
scalar MyScenario.node[85].veinsmobility 	startTime 	1
scalar MyScenario.node[85].veinsmobility 	totalTime 	47
scalar MyScenario.node[85].veinsmobility 	stopTime 	49
scalar MyScenario.node[85].veinsmobility 	minSpeed 	2.4867319139419
scalar MyScenario.node[85].veinsmobility 	maxSpeed 	13.750914716185
scalar MyScenario.node[85].veinsmobility 	totalDistance 	561.40948928
scalar MyScenario.node[85].veinsmobility 	totalCO2Emission 	137.83260622175
scalar MyScenario.node[29].appl 	generatedWSMs 	1
scalar MyScenario.node[29].appl 	receivedWSMs 	1
scalar MyScenario.node[29].appl 	generatedBSMs 	0
scalar MyScenario.node[29].appl 	receivedBSMs 	0
scalar MyScenario.node[29].appl 	generatedWSAs 	0
scalar MyScenario.node[29].appl 	receivedWSAs 	0
scalar MyScenario.node[29].nic.phy80211p 	busyTime 	2.3673469387755e-05
scalar MyScenario.node[29].nic.mac1609_4 	ReceivedUnicastPackets 	0
scalar MyScenario.node[29].nic.mac1609_4 	ReceivedBroadcasts 	1
scalar MyScenario.node[29].nic.mac1609_4 	SentPackets 	1
scalar MyScenario.node[29].nic.mac1609_4 	SNIRLostPackets 	4
scalar MyScenario.node[29].nic.mac1609_4 	RXTXLostPackets 	7
scalar MyScenario.node[29].nic.mac1609_4 	TotalLostPackets 	11
scalar MyScenario.node[29].nic.mac1609_4 	DroppedPacketsInMac 	0
scalar MyScenario.node[29].nic.mac1609_4 	TooLittleTime 	0
scalar MyScenario.node[29].nic.mac1609_4 	TimesIntoBackoff 	1
scalar MyScenario.node[29].nic.mac1609_4 	SlotsBackoff 	2
scalar MyScenario.node[29].nic.mac1609_4 	NumInternalContention 	0
scalar MyScenario.node[29].nic.mac1609_4 	totalBusyTime 	0.000697
scalar MyScenario.node[29].veinsmobility 	startTime 	1
scalar MyScenario.node[29].veinsmobility 	totalTime 	48
scalar MyScenario.node[29].veinsmobility 	stopTime 	50
scalar MyScenario.node[29].veinsmobility 	minSpeed 	1.6137996934354
scalar MyScenario.node[29].veinsmobility 	maxSpeed 	13.896414592071
scalar MyScenario.node[29].veinsmobility 	totalDistance 	557.52821299338
scalar MyScenario.node[29].veinsmobility 	totalCO2Emission 	138.48879427123
scalar MyScenario.node[14].appl 	generatedWSMs 	0
scalar MyScenario.node[14].appl 	receivedWSMs 	0
scalar MyScenario.node[14].appl 	generatedBSMs 	0
scalar MyScenario.node[14].appl 	receivedBSMs 	0
scalar MyScenario.node[14].appl 	generatedWSAs 	0
scalar MyScenario.node[14].appl 	receivedWSAs 	0
scalar MyScenario.node[14].nic.phy80211p 	busyTime 	0
scalar MyScenario.node[14].nic.mac1609_4 	ReceivedUnicastPackets 	0
scalar MyScenario.node[14].nic.mac1609_4 	ReceivedBroadcasts 	0
scalar MyScenario.node[14].nic.mac1609_4 	SentPackets 	0
scalar MyScenario.node[14].nic.mac1609_4 	SNIRLostPackets 	0
scalar MyScenario.node[14].nic.mac1609_4 	RXTXLostPackets 	0
scalar MyScenario.node[14].nic.mac1609_4 	TotalLostPackets 	0
scalar MyScenario.node[14].nic.mac1609_4 	DroppedPacketsInMac 	0
scalar MyScenario.node[14].nic.mac1609_4 	TooLittleTime 	0
scalar MyScenario.node[14].nic.mac1609_4 	TimesIntoBackoff 	0
scalar MyScenario.node[14].nic.mac1609_4 	SlotsBackoff 	0
scalar MyScenario.node[14].nic.mac1609_4 	NumInternalContention 	0
scalar MyScenario.node[14].nic.mac1609_4 	totalBusyTime 	0
scalar MyScenario.node[14].veinsmobility 	startTime 	1
scalar MyScenario.node[14].veinsmobility 	totalTime 	49
scalar MyScenario.node[14].veinsmobility 	stopTime 	51
scalar MyScenario.node[14].veinsmobility 	minSpeed 	1.8610358671751
scalar MyScenario.node[14].veinsmobility 	maxSpeed 	13.888703105575
scalar MyScenario.node[14].veinsmobility 	totalDistance 	558.83297953068
scalar MyScenario.node[14].veinsmobility 	totalCO2Emission 	155.81936458565
scalar MyScenario.node[53].appl 	generatedWSMs 	1
scalar MyScenario.node[53].appl 	receivedWSMs 	1
scalar MyScenario.node[53].appl 	generatedBSMs 	0
scalar MyScenario.node[53].appl 	receivedBSMs 	0
scalar MyScenario.node[53].appl 	generatedWSAs 	0
scalar MyScenario.node[53].appl 	receivedWSAs 	0
scalar MyScenario.node[53].nic.phy80211p 	busyTime 	2.784e-05
scalar MyScenario.node[53].nic.mac1609_4 	ReceivedUnicastPackets 	0
scalar MyScenario.node[53].nic.mac1609_4 	ReceivedBroadcasts 	1
scalar MyScenario.node[53].nic.mac1609_4 	SentPackets 	1
scalar MyScenario.node[53].nic.mac1609_4 	SNIRLostPackets 	5
scalar MyScenario.node[53].nic.mac1609_4 	RXTXLostPackets 	8
scalar MyScenario.node[53].nic.mac1609_4 	TotalLostPackets 	13
scalar MyScenario.node[53].nic.mac1609_4 	DroppedPacketsInMac 	0
scalar MyScenario.node[53].nic.mac1609_4 	TooLittleTime 	0
scalar MyScenario.node[53].nic.mac1609_4 	TimesIntoBackoff 	1
scalar MyScenario.node[53].nic.mac1609_4 	SlotsBackoff 	1
scalar MyScenario.node[53].nic.mac1609_4 	NumInternalContention 	0
scalar MyScenario.node[53].nic.mac1609_4 	totalBusyTime 	0.000929
scalar MyScenario.node[53].veinsmobility 	startTime 	1
scalar MyScenario.node[53].veinsmobility 	totalTime 	49
scalar MyScenario.node[53].veinsmobility 	stopTime 	51
scalar MyScenario.node[53].veinsmobility 	minSpeed 	2.413640728849
scalar MyScenario.node[53].veinsmobility 	maxSpeed 	13.880629987502
scalar MyScenario.node[53].veinsmobility 	totalDistance 	547.77815605741
scalar MyScenario.node[53].veinsmobility 	totalCO2Emission 	174.78454917906
scalar MyScenario.node[13].appl 	generatedWSMs 	0
scalar MyScenario.node[13].appl 	receivedWSMs 	0
scalar MyScenario.node[13].appl 	generatedBSMs 	0
scalar MyScenario.node[13].appl 	receivedBSMs 	0
scalar MyScenario.node[13].appl 	generatedWSAs 	0
scalar MyScenario.node[13].appl 	receivedWSAs 	0
scalar MyScenario.node[13].nic.phy80211p 	busyTime 	4.0153846153846e-05
scalar MyScenario.node[13].nic.mac1609_4 	ReceivedUnicastPackets 	0
scalar MyScenario.node[13].nic.mac1609_4 	ReceivedBroadcasts 	0
scalar MyScenario.node[13].nic.mac1609_4 	SentPackets 	0
scalar MyScenario.node[13].nic.mac1609_4 	SNIRLostPackets 	9
scalar MyScenario.node[13].nic.mac1609_4 	RXTXLostPackets 	0
scalar MyScenario.node[13].nic.mac1609_4 	TotalLostPackets 	9
scalar MyScenario.node[13].nic.mac1609_4 	DroppedPacketsInMac 	0
scalar MyScenario.node[13].nic.mac1609_4 	TooLittleTime 	0
scalar MyScenario.node[13].nic.mac1609_4 	TimesIntoBackoff 	0
scalar MyScenario.node[13].nic.mac1609_4 	SlotsBackoff 	0
scalar MyScenario.node[13].nic.mac1609_4 	NumInternalContention 	0
scalar MyScenario.node[13].nic.mac1609_4 	totalBusyTime 	0.000696
scalar MyScenario.node[13].veinsmobility 	startTime 	1
scalar MyScenario.node[13].veinsmobility 	totalTime 	51
scalar MyScenario.node[13].veinsmobility 	stopTime 	53
scalar MyScenario.node[13].veinsmobility 	minSpeed 	0.00063207951238217
scalar MyScenario.node[13].veinsmobility 	maxSpeed 	13.898548961943
scalar MyScenario.node[13].veinsmobility 	totalDistance 	475.67414218493
scalar MyScenario.node[13].veinsmobility 	totalCO2Emission 	173.53495044963
scalar MyScenario.node[12].appl 	generatedWSMs 	1
scalar MyScenario.node[12].appl 	receivedWSMs 	12
scalar MyScenario.node[12].appl 	generatedBSMs 	0
scalar MyScenario.node[12].appl 	receivedBSMs 	0
scalar MyScenario.node[12].appl 	generatedWSAs 	0
scalar MyScenario.node[12].appl 	receivedWSAs 	0
scalar MyScenario.node[12].nic.phy80211p 	busyTime 	7.4415094339623e-05
scalar MyScenario.node[12].nic.mac1609_4 	ReceivedUnicastPackets 	0
scalar MyScenario.node[12].nic.mac1609_4 	ReceivedBroadcasts 	12
scalar MyScenario.node[12].nic.mac1609_4 	SentPackets 	1
scalar MyScenario.node[12].nic.mac1609_4 	SNIRLostPackets 	5
scalar MyScenario.node[12].nic.mac1609_4 	RXTXLostPackets 	2
scalar MyScenario.node[12].nic.mac1609_4 	TotalLostPackets 	7
scalar MyScenario.node[12].nic.mac1609_4 	DroppedPacketsInMac 	0
scalar MyScenario.node[12].nic.mac1609_4 	TooLittleTime 	0
scalar MyScenario.node[12].nic.mac1609_4 	TimesIntoBackoff 	1
scalar MyScenario.node[12].nic.mac1609_4 	SlotsBackoff 	0
scalar MyScenario.node[12].nic.mac1609_4 	NumInternalContention 	0
scalar MyScenario.node[12].nic.mac1609_4 	totalBusyTime 	0.003945
scalar MyScenario.node[12].veinsmobility 	startTime 	1
scalar MyScenario.node[12].veinsmobility 	totalTime 	52
scalar MyScenario.node[12].veinsmobility 	stopTime 	54
scalar MyScenario.node[12].veinsmobility 	minSpeed 	4.0509070451369e-06
scalar MyScenario.node[12].veinsmobility 	maxSpeed 	13.883207009686
scalar MyScenario.node[12].veinsmobility 	totalDistance 	482.22877925114
scalar MyScenario.node[12].veinsmobility 	totalCO2Emission 	159.04677345117
scalar MyScenario.node[62].appl 	generatedWSMs 	1
scalar MyScenario.node[62].appl 	receivedWSMs 	9
scalar MyScenario.node[62].appl 	generatedBSMs 	0
scalar MyScenario.node[62].appl 	receivedBSMs 	0
scalar MyScenario.node[62].appl 	generatedWSAs 	0
scalar MyScenario.node[62].appl 	receivedWSAs 	0
scalar MyScenario.node[62].nic.phy80211p 	busyTime 	6.0148148148148e-05
scalar MyScenario.node[62].nic.mac1609_4 	ReceivedUnicastPackets 	0
scalar MyScenario.node[62].nic.mac1609_4 	ReceivedBroadcasts 	9
scalar MyScenario.node[62].nic.mac1609_4 	SentPackets 	1
scalar MyScenario.node[62].nic.mac1609_4 	SNIRLostPackets 	5
scalar MyScenario.node[62].nic.mac1609_4 	RXTXLostPackets 	7
scalar MyScenario.node[62].nic.mac1609_4 	TotalLostPackets 	12
scalar MyScenario.node[62].nic.mac1609_4 	DroppedPacketsInMac 	0
scalar MyScenario.node[62].nic.mac1609_4 	TooLittleTime 	0
scalar MyScenario.node[62].nic.mac1609_4 	TimesIntoBackoff 	1
scalar MyScenario.node[62].nic.mac1609_4 	SlotsBackoff 	1
scalar MyScenario.node[62].nic.mac1609_4 	NumInternalContention 	0
scalar MyScenario.node[62].nic.mac1609_4 	totalBusyTime 	0.003249
scalar MyScenario.node[62].veinsmobility 	startTime 	1
scalar MyScenario.node[62].veinsmobility 	totalTime 	53
scalar MyScenario.node[62].veinsmobility 	stopTime 	55
scalar MyScenario.node[62].veinsmobility 	minSpeed 	2.1015260222834
scalar MyScenario.node[62].veinsmobility 	maxSpeed 	13.863623409346
scalar MyScenario.node[62].veinsmobility 	totalDistance 	579.80766952653
scalar MyScenario.node[62].veinsmobility 	totalCO2Emission 	177.43625555067
scalar MyScenario.node[50].appl 	generatedWSMs 	0
scalar MyScenario.node[50].appl 	receivedWSMs 	0
scalar MyScenario.node[50].appl 	generatedBSMs 	0
scalar MyScenario.node[50].appl 	receivedBSMs 	0
scalar MyScenario.node[50].appl 	generatedWSAs 	0
scalar MyScenario.node[50].appl 	receivedWSAs 	0
scalar MyScenario.node[50].nic.phy80211p 	busyTime 	1.2428571428571e-05
scalar MyScenario.node[50].nic.mac1609_4 	ReceivedUnicastPackets 	0
scalar MyScenario.node[50].nic.mac1609_4 	ReceivedBroadcasts 	0
scalar MyScenario.node[50].nic.mac1609_4 	SentPackets 	0
scalar MyScenario.node[50].nic.mac1609_4 	SNIRLostPackets 	3
scalar MyScenario.node[50].nic.mac1609_4 	RXTXLostPackets 	0
scalar MyScenario.node[50].nic.mac1609_4 	TotalLostPackets 	3
scalar MyScenario.node[50].nic.mac1609_4 	DroppedPacketsInMac 	0
scalar MyScenario.node[50].nic.mac1609_4 	TooLittleTime 	0
scalar MyScenario.node[50].nic.mac1609_4 	TimesIntoBackoff 	0
scalar MyScenario.node[50].nic.mac1609_4 	SlotsBackoff 	0
scalar MyScenario.node[50].nic.mac1609_4 	NumInternalContention 	0
scalar MyScenario.node[50].nic.mac1609_4 	totalBusyTime 	0.000464
scalar MyScenario.node[50].veinsmobility 	startTime 	1
scalar MyScenario.node[50].veinsmobility 	totalTime 	55
scalar MyScenario.node[50].veinsmobility 	stopTime 	57
scalar MyScenario.node[50].veinsmobility 	minSpeed 	2.2560777051607
scalar MyScenario.node[50].veinsmobility 	maxSpeed 	13.895970593742
scalar MyScenario.node[50].veinsmobility 	totalDistance 	663.16261598422
scalar MyScenario.node[50].veinsmobility 	totalCO2Emission 	152.1532815451
scalar MyScenario.node[35].appl 	generatedWSMs 	0
scalar MyScenario.node[35].appl 	receivedWSMs 	0
scalar MyScenario.node[35].appl 	generatedBSMs 	0
scalar MyScenario.node[35].appl 	receivedBSMs 	0
scalar MyScenario.node[35].appl 	generatedWSAs 	0
scalar MyScenario.node[35].appl 	receivedWSAs 	0
scalar MyScenario.node[35].nic.phy80211p 	busyTime 	0
scalar MyScenario.node[35].nic.mac1609_4 	ReceivedUnicastPackets 	0
scalar MyScenario.node[35].nic.mac1609_4 	ReceivedBroadcasts 	0
scalar MyScenario.node[35].nic.mac1609_4 	SentPackets 	0
scalar MyScenario.node[35].nic.mac1609_4 	SNIRLostPackets 	0
scalar MyScenario.node[35].nic.mac1609_4 	RXTXLostPackets 	0
scalar MyScenario.node[35].nic.mac1609_4 	TotalLostPackets 	0
scalar MyScenario.node[35].nic.mac1609_4 	DroppedPacketsInMac 	0
scalar MyScenario.node[35].nic.mac1609_4 	TooLittleTime 	0
scalar MyScenario.node[35].nic.mac1609_4 	TimesIntoBackoff 	0
scalar MyScenario.node[35].nic.mac1609_4 	SlotsBackoff 	0
scalar MyScenario.node[35].nic.mac1609_4 	NumInternalContention 	0
scalar MyScenario.node[35].nic.mac1609_4 	totalBusyTime 	0
scalar MyScenario.node[35].veinsmobility 	startTime 	1
scalar MyScenario.node[35].veinsmobility 	totalTime 	55
scalar MyScenario.node[35].veinsmobility 	stopTime 	57
scalar MyScenario.node[35].veinsmobility 	minSpeed 	1.7979858017527
scalar MyScenario.node[35].veinsmobility 	maxSpeed 	13.868114379654
scalar MyScenario.node[35].veinsmobility 	totalDistance 	660.80208001038
scalar MyScenario.node[35].veinsmobility 	totalCO2Emission 	162.36966970407
scalar MyScenario.node[54].appl 	generatedWSMs 	1
scalar MyScenario.node[54].appl 	receivedWSMs 	2
scalar MyScenario.node[54].appl 	generatedBSMs 	0
scalar MyScenario.node[54].appl 	receivedBSMs 	0
scalar MyScenario.node[54].appl 	generatedWSAs 	0
scalar MyScenario.node[54].appl 	receivedWSAs 	0
scalar MyScenario.node[54].nic.phy80211p 	busyTime 	2.8e-05
scalar MyScenario.node[54].nic.mac1609_4 	ReceivedUnicastPackets 	0
scalar MyScenario.node[54].nic.mac1609_4 	ReceivedBroadcasts 	2
scalar MyScenario.node[54].nic.mac1609_4 	SentPackets 	1
scalar MyScenario.node[54].nic.mac1609_4 	SNIRLostPackets 	5
scalar MyScenario.node[54].nic.mac1609_4 	RXTXLostPackets 	2
scalar MyScenario.node[54].nic.mac1609_4 	TotalLostPackets 	7
scalar MyScenario.node[54].nic.mac1609_4 	DroppedPacketsInMac 	0
scalar MyScenario.node[54].nic.mac1609_4 	TooLittleTime 	0
scalar MyScenario.node[54].nic.mac1609_4 	TimesIntoBackoff 	1
scalar MyScenario.node[54].nic.mac1609_4 	SlotsBackoff 	1
scalar MyScenario.node[54].nic.mac1609_4 	NumInternalContention 	0
scalar MyScenario.node[54].nic.mac1609_4 	totalBusyTime 	0.001161
scalar MyScenario.node[54].veinsmobility 	startTime 	1
scalar MyScenario.node[54].veinsmobility 	totalTime 	57
scalar MyScenario.node[54].veinsmobility 	stopTime 	59
scalar MyScenario.node[54].veinsmobility 	minSpeed 	1.4688865736127
scalar MyScenario.node[54].veinsmobility 	maxSpeed 	13.888222003542
scalar MyScenario.node[54].veinsmobility 	totalDistance 	669.00942618011
scalar MyScenario.node[54].veinsmobility 	totalCO2Emission 	169.03267815369
scalar MyScenario.node[70].appl 	generatedWSMs 	0
scalar MyScenario.node[70].appl 	receivedWSMs 	0
scalar MyScenario.node[70].appl 	generatedBSMs 	0
scalar MyScenario.node[70].appl 	receivedBSMs 	0
scalar MyScenario.node[70].appl 	generatedWSAs 	0
scalar MyScenario.node[70].appl 	receivedWSAs 	0
scalar MyScenario.node[70].nic.phy80211p 	busyTime 	8e-06
scalar MyScenario.node[70].nic.mac1609_4 	ReceivedUnicastPackets 	0
scalar MyScenario.node[70].nic.mac1609_4 	ReceivedBroadcasts 	0
scalar MyScenario.node[70].nic.mac1609_4 	SentPackets 	0
scalar MyScenario.node[70].nic.mac1609_4 	SNIRLostPackets 	2
scalar MyScenario.node[70].nic.mac1609_4 	RXTXLostPackets 	0
scalar MyScenario.node[70].nic.mac1609_4 	TotalLostPackets 	2
scalar MyScenario.node[70].nic.mac1609_4 	DroppedPacketsInMac 	0
scalar MyScenario.node[70].nic.mac1609_4 	TooLittleTime 	0
scalar MyScenario.node[70].nic.mac1609_4 	TimesIntoBackoff 	0
scalar MyScenario.node[70].nic.mac1609_4 	SlotsBackoff 	0
scalar MyScenario.node[70].nic.mac1609_4 	NumInternalContention 	0
scalar MyScenario.node[70].nic.mac1609_4 	totalBusyTime 	0.000232
scalar MyScenario.node[70].veinsmobility 	startTime 	1
scalar MyScenario.node[70].veinsmobility 	totalTime 	57
scalar MyScenario.node[70].veinsmobility 	stopTime 	59
scalar MyScenario.node[70].veinsmobility 	minSpeed 	2.3577679520939
scalar MyScenario.node[70].veinsmobility 	maxSpeed 	13.854214247945
scalar MyScenario.node[70].veinsmobility 	totalDistance 	660.99673635817
scalar MyScenario.node[70].veinsmobility 	totalCO2Emission 	169.73548450205
scalar MyScenario.node[77].appl 	generatedWSMs 	1
scalar MyScenario.node[77].appl 	receivedWSMs 	3
scalar MyScenario.node[77].appl 	generatedBSMs 	0
scalar MyScenario.node[77].appl 	receivedBSMs 	0
scalar MyScenario.node[77].appl 	generatedWSAs 	0
scalar MyScenario.node[77].appl 	receivedWSAs 	0
scalar MyScenario.node[77].nic.phy80211p 	busyTime 	1.1796610169492e-05
scalar MyScenario.node[77].nic.mac1609_4 	ReceivedUnicastPackets 	0
scalar MyScenario.node[77].nic.mac1609_4 	ReceivedBroadcasts 	3
scalar MyScenario.node[77].nic.mac1609_4 	SentPackets 	1
scalar MyScenario.node[77].nic.mac1609_4 	SNIRLostPackets 	0
scalar MyScenario.node[77].nic.mac1609_4 	RXTXLostPackets 	8
scalar MyScenario.node[77].nic.mac1609_4 	TotalLostPackets 	8
scalar MyScenario.node[77].nic.mac1609_4 	DroppedPacketsInMac 	0
scalar MyScenario.node[77].nic.mac1609_4 	TooLittleTime 	0
scalar MyScenario.node[77].nic.mac1609_4 	TimesIntoBackoff 	1
scalar MyScenario.node[77].nic.mac1609_4 	SlotsBackoff 	1
scalar MyScenario.node[77].nic.mac1609_4 	NumInternalContention 	0
scalar MyScenario.node[77].nic.mac1609_4 	totalBusyTime 	0.000929
scalar MyScenario.node[77].veinsmobility 	startTime 	1
scalar MyScenario.node[77].veinsmobility 	totalTime 	58
scalar MyScenario.node[77].veinsmobility 	stopTime 	60
scalar MyScenario.node[77].veinsmobility 	minSpeed 	1.1350667593465
scalar MyScenario.node[77].veinsmobility 	maxSpeed 	13.893253494054
scalar MyScenario.node[77].veinsmobility 	totalDistance 	678.26956442527
scalar MyScenario.node[77].veinsmobility 	totalCO2Emission 	154.52807490688
scalar MyScenario.node[61].appl 	generatedWSMs 	0
scalar MyScenario.node[61].appl 	receivedWSMs 	0
scalar MyScenario.node[61].appl 	generatedBSMs 	0
scalar MyScenario.node[61].appl 	receivedBSMs 	0
scalar MyScenario.node[61].appl 	generatedWSAs 	0
scalar MyScenario.node[61].appl 	receivedWSAs 	0
scalar MyScenario.node[61].nic.phy80211p 	busyTime 	1.1796610169492e-05
scalar MyScenario.node[61].nic.mac1609_4 	ReceivedUnicastPackets 	0
scalar MyScenario.node[61].nic.mac1609_4 	ReceivedBroadcasts 	0
scalar MyScenario.node[61].nic.mac1609_4 	SentPackets 	0
scalar MyScenario.node[61].nic.mac1609_4 	SNIRLostPackets 	3
scalar MyScenario.node[61].nic.mac1609_4 	RXTXLostPackets 	0
scalar MyScenario.node[61].nic.mac1609_4 	TotalLostPackets 	3
scalar MyScenario.node[61].nic.mac1609_4 	DroppedPacketsInMac 	0
scalar MyScenario.node[61].nic.mac1609_4 	TooLittleTime 	0
scalar MyScenario.node[61].nic.mac1609_4 	TimesIntoBackoff 	0
scalar MyScenario.node[61].nic.mac1609_4 	SlotsBackoff 	0
scalar MyScenario.node[61].nic.mac1609_4 	NumInternalContention 	0
scalar MyScenario.node[61].nic.mac1609_4 	totalBusyTime 	0.000232
scalar MyScenario.node[61].veinsmobility 	startTime 	1
scalar MyScenario.node[61].veinsmobility 	totalTime 	58
scalar MyScenario.node[61].veinsmobility 	stopTime 	60
scalar MyScenario.node[61].veinsmobility 	minSpeed 	0.0018959389622396
scalar MyScenario.node[61].veinsmobility 	maxSpeed 	13.793507249234
scalar MyScenario.node[61].veinsmobility 	totalDistance 	571.42960940859
scalar MyScenario.node[61].veinsmobility 	totalCO2Emission 	188.57429274554
scalar MyScenario.node[63].appl 	generatedWSMs 	0
scalar MyScenario.node[63].appl 	receivedWSMs 	0
scalar MyScenario.node[63].appl 	generatedBSMs 	0
scalar MyScenario.node[63].appl 	receivedBSMs 	0
scalar MyScenario.node[63].appl 	generatedWSAs 	0
scalar MyScenario.node[63].appl 	receivedWSAs 	0
scalar MyScenario.node[63].nic.phy80211p 	busyTime 	1.5728813559322e-05
scalar MyScenario.node[63].nic.mac1609_4 	ReceivedUnicastPackets 	0
scalar MyScenario.node[63].nic.mac1609_4 	ReceivedBroadcasts 	0
scalar MyScenario.node[63].nic.mac1609_4 	SentPackets 	0
scalar MyScenario.node[63].nic.mac1609_4 	SNIRLostPackets 	4
scalar MyScenario.node[63].nic.mac1609_4 	RXTXLostPackets 	0
scalar MyScenario.node[63].nic.mac1609_4 	TotalLostPackets 	4
scalar MyScenario.node[63].nic.mac1609_4 	DroppedPacketsInMac 	0
scalar MyScenario.node[63].nic.mac1609_4 	TooLittleTime 	0
scalar MyScenario.node[63].nic.mac1609_4 	TimesIntoBackoff 	0
scalar MyScenario.node[63].nic.mac1609_4 	SlotsBackoff 	0
scalar MyScenario.node[63].nic.mac1609_4 	NumInternalContention 	0
scalar MyScenario.node[63].nic.mac1609_4 	totalBusyTime 	0.000232
scalar MyScenario.node[63].veinsmobility 	startTime 	1
scalar MyScenario.node[63].veinsmobility 	totalTime 	58
scalar MyScenario.node[63].veinsmobility 	stopTime 	60
scalar MyScenario.node[63].veinsmobility 	minSpeed 	1.8042755607981
scalar MyScenario.node[63].veinsmobility 	maxSpeed 	13.876474734838
scalar MyScenario.node[63].veinsmobility 	totalDistance 	674.13424078943
scalar MyScenario.node[63].veinsmobility 	totalCO2Emission 	179.08795957839
scalar MyScenario.node[55].appl 	generatedWSMs 	0
scalar MyScenario.node[55].appl 	receivedWSMs 	0
scalar MyScenario.node[55].appl 	generatedBSMs 	0
scalar MyScenario.node[55].appl 	receivedBSMs 	0
scalar MyScenario.node[55].appl 	generatedWSAs 	0
scalar MyScenario.node[55].appl 	receivedWSAs 	0
scalar MyScenario.node[55].nic.phy80211p 	busyTime 	0
scalar MyScenario.node[55].nic.mac1609_4 	ReceivedUnicastPackets 	0
scalar MyScenario.node[55].nic.mac1609_4 	ReceivedBroadcasts 	0
scalar MyScenario.node[55].nic.mac1609_4 	SentPackets 	0
scalar MyScenario.node[55].nic.mac1609_4 	SNIRLostPackets 	0
scalar MyScenario.node[55].nic.mac1609_4 	RXTXLostPackets 	0
scalar MyScenario.node[55].nic.mac1609_4 	TotalLostPackets 	0
scalar MyScenario.node[55].nic.mac1609_4 	DroppedPacketsInMac 	0
scalar MyScenario.node[55].nic.mac1609_4 	TooLittleTime 	0
scalar MyScenario.node[55].nic.mac1609_4 	TimesIntoBackoff 	0
scalar MyScenario.node[55].nic.mac1609_4 	SlotsBackoff 	0
scalar MyScenario.node[55].nic.mac1609_4 	NumInternalContention 	0
scalar MyScenario.node[55].nic.mac1609_4 	totalBusyTime 	0
scalar MyScenario.node[55].veinsmobility 	startTime 	1
scalar MyScenario.node[55].veinsmobility 	totalTime 	60
scalar MyScenario.node[55].veinsmobility 	stopTime 	62
scalar MyScenario.node[55].veinsmobility 	minSpeed 	1.7136336127995
scalar MyScenario.node[55].veinsmobility 	maxSpeed 	13.840836073691
scalar MyScenario.node[55].veinsmobility 	totalDistance 	657.70484032276
scalar MyScenario.node[55].veinsmobility 	totalCO2Emission 	208.04343668994
scalar MyScenario.node[10].appl 	generatedWSMs 	1
scalar MyScenario.node[10].appl 	receivedWSMs 	14
scalar MyScenario.node[10].appl 	generatedBSMs 	0
scalar MyScenario.node[10].appl 	receivedBSMs 	0
scalar MyScenario.node[10].appl 	generatedWSAs 	0
scalar MyScenario.node[10].appl 	receivedWSAs 	0
scalar MyScenario.node[10].nic.phy80211p 	busyTime 	5.2387096774194e-05
scalar MyScenario.node[10].nic.mac1609_4 	ReceivedUnicastPackets 	0
scalar MyScenario.node[10].nic.mac1609_4 	ReceivedBroadcasts 	14
scalar MyScenario.node[10].nic.mac1609_4 	SentPackets 	1
scalar MyScenario.node[10].nic.mac1609_4 	SNIRLostPackets 	0
scalar MyScenario.node[10].nic.mac1609_4 	RXTXLostPackets 	9
scalar MyScenario.node[10].nic.mac1609_4 	TotalLostPackets 	9
scalar MyScenario.node[10].nic.mac1609_4 	DroppedPacketsInMac 	0
scalar MyScenario.node[10].nic.mac1609_4 	TooLittleTime 	0
scalar MyScenario.node[10].nic.mac1609_4 	TimesIntoBackoff 	1
scalar MyScenario.node[10].nic.mac1609_4 	SlotsBackoff 	1
scalar MyScenario.node[10].nic.mac1609_4 	NumInternalContention 	0
scalar MyScenario.node[10].nic.mac1609_4 	totalBusyTime 	0.003481
scalar MyScenario.node[10].veinsmobility 	startTime 	1
scalar MyScenario.node[10].veinsmobility 	totalTime 	61
scalar MyScenario.node[10].veinsmobility 	stopTime 	63
scalar MyScenario.node[10].veinsmobility 	minSpeed 	1.7893671946833
scalar MyScenario.node[10].veinsmobility 	maxSpeed 	13.887289220863
scalar MyScenario.node[10].veinsmobility 	totalDistance 	684.52867887479
scalar MyScenario.node[10].veinsmobility 	totalCO2Emission 	183.36451297947
scalar MyScenario.node[82].appl 	generatedWSMs 	1
scalar MyScenario.node[82].appl 	receivedWSMs 	1
scalar MyScenario.node[82].appl 	generatedBSMs 	0
scalar MyScenario.node[82].appl 	receivedBSMs 	0
scalar MyScenario.node[82].appl 	generatedWSAs 	0
scalar MyScenario.node[82].appl 	receivedWSAs 	0
scalar MyScenario.node[82].nic.phy80211p 	busyTime 	1.1225806451613e-05
scalar MyScenario.node[82].nic.mac1609_4 	ReceivedUnicastPackets 	0
scalar MyScenario.node[82].nic.mac1609_4 	ReceivedBroadcasts 	1
scalar MyScenario.node[82].nic.mac1609_4 	SentPackets 	1
scalar MyScenario.node[82].nic.mac1609_4 	SNIRLostPackets 	2
scalar MyScenario.node[82].nic.mac1609_4 	RXTXLostPackets 	4
scalar MyScenario.node[82].nic.mac1609_4 	TotalLostPackets 	6
scalar MyScenario.node[82].nic.mac1609_4 	DroppedPacketsInMac 	0
scalar MyScenario.node[82].nic.mac1609_4 	TooLittleTime 	0
scalar MyScenario.node[82].nic.mac1609_4 	TimesIntoBackoff 	1
scalar MyScenario.node[82].nic.mac1609_4 	SlotsBackoff 	1
scalar MyScenario.node[82].nic.mac1609_4 	NumInternalContention 	0
scalar MyScenario.node[82].nic.mac1609_4 	totalBusyTime 	0.000697
scalar MyScenario.node[82].veinsmobility 	startTime 	1
scalar MyScenario.node[82].veinsmobility 	totalTime 	61
scalar MyScenario.node[82].veinsmobility 	stopTime 	63
scalar MyScenario.node[82].veinsmobility 	minSpeed 	1.3277961542364
scalar MyScenario.node[82].veinsmobility 	maxSpeed 	13.890291187982
scalar MyScenario.node[82].veinsmobility 	totalDistance 	681.83056983973
scalar MyScenario.node[82].veinsmobility 	totalCO2Emission 	205.33467097146
scalar MyScenario.node[5].appl 	generatedWSMs 	1
scalar MyScenario.node[5].appl 	receivedWSMs 	8
scalar MyScenario.node[5].appl 	generatedBSMs 	0
scalar MyScenario.node[5].appl 	receivedBSMs 	0
scalar MyScenario.node[5].appl 	generatedWSAs 	0
scalar MyScenario.node[5].appl 	receivedWSAs 	0
scalar MyScenario.node[5].nic.phy80211p 	busyTime 	7.858064516129e-05
scalar MyScenario.node[5].nic.mac1609_4 	ReceivedUnicastPackets 	0
scalar MyScenario.node[5].nic.mac1609_4 	ReceivedBroadcasts 	8
scalar MyScenario.node[5].nic.mac1609_4 	SentPackets 	1
scalar MyScenario.node[5].nic.mac1609_4 	SNIRLostPackets 	13
scalar MyScenario.node[5].nic.mac1609_4 	RXTXLostPackets 	6
scalar MyScenario.node[5].nic.mac1609_4 	TotalLostPackets 	19
scalar MyScenario.node[5].nic.mac1609_4 	DroppedPacketsInMac 	0
scalar MyScenario.node[5].nic.mac1609_4 	TooLittleTime 	0
scalar MyScenario.node[5].nic.mac1609_4 	TimesIntoBackoff 	1
scalar MyScenario.node[5].nic.mac1609_4 	SlotsBackoff 	1
scalar MyScenario.node[5].nic.mac1609_4 	NumInternalContention 	0
scalar MyScenario.node[5].nic.mac1609_4 	totalBusyTime 	0.003017
scalar MyScenario.node[5].veinsmobility 	startTime 	1
scalar MyScenario.node[5].veinsmobility 	totalTime 	61
scalar MyScenario.node[5].veinsmobility 	stopTime 	63
scalar MyScenario.node[5].veinsmobility 	minSpeed 	1.979035354848
scalar MyScenario.node[5].veinsmobility 	maxSpeed 	13.885988911614
scalar MyScenario.node[5].veinsmobility 	totalDistance 	673.5192948935
scalar MyScenario.node[5].veinsmobility 	totalCO2Emission 	214.08572878284
scalar MyScenario.node[71].appl 	generatedWSMs 	0
scalar MyScenario.node[71].appl 	receivedWSMs 	0
scalar MyScenario.node[71].appl 	generatedBSMs 	0
scalar MyScenario.node[71].appl 	receivedBSMs 	0
scalar MyScenario.node[71].appl 	generatedWSAs 	0
scalar MyScenario.node[71].appl 	receivedWSAs 	0
scalar MyScenario.node[71].nic.phy80211p 	busyTime 	3.6825396825397e-06
scalar MyScenario.node[71].nic.mac1609_4 	ReceivedUnicastPackets 	0
scalar MyScenario.node[71].nic.mac1609_4 	ReceivedBroadcasts 	0
scalar MyScenario.node[71].nic.mac1609_4 	SentPackets 	0
scalar MyScenario.node[71].nic.mac1609_4 	SNIRLostPackets 	1
scalar MyScenario.node[71].nic.mac1609_4 	RXTXLostPackets 	0
scalar MyScenario.node[71].nic.mac1609_4 	TotalLostPackets 	1
scalar MyScenario.node[71].nic.mac1609_4 	DroppedPacketsInMac 	0
scalar MyScenario.node[71].nic.mac1609_4 	TooLittleTime 	0
scalar MyScenario.node[71].nic.mac1609_4 	TimesIntoBackoff 	0
scalar MyScenario.node[71].nic.mac1609_4 	SlotsBackoff 	0
scalar MyScenario.node[71].nic.mac1609_4 	NumInternalContention 	0
scalar MyScenario.node[71].nic.mac1609_4 	totalBusyTime 	0.000232
scalar MyScenario.node[71].veinsmobility 	startTime 	1
scalar MyScenario.node[71].veinsmobility 	totalTime 	62
scalar MyScenario.node[71].veinsmobility 	stopTime 	64
scalar MyScenario.node[71].veinsmobility 	minSpeed 	1.5610938670114
scalar MyScenario.node[71].veinsmobility 	maxSpeed 	13.855708006234
scalar MyScenario.node[71].veinsmobility 	totalDistance 	754.05562084637
scalar MyScenario.node[71].veinsmobility 	totalCO2Emission 	173.41533212739
scalar MyScenario.node[32].appl 	generatedWSMs 	1
scalar MyScenario.node[32].appl 	receivedWSMs 	6
scalar MyScenario.node[32].appl 	generatedBSMs 	0
scalar MyScenario.node[32].appl 	receivedBSMs 	0
scalar MyScenario.node[32].appl 	generatedWSAs 	0
scalar MyScenario.node[32].appl 	receivedWSAs 	0
scalar MyScenario.node[32].nic.phy80211p 	busyTime 	5.1555555555556e-05
scalar MyScenario.node[32].nic.mac1609_4 	ReceivedUnicastPackets 	0
scalar MyScenario.node[32].nic.mac1609_4 	ReceivedBroadcasts 	6
scalar MyScenario.node[32].nic.mac1609_4 	SentPackets 	1
scalar MyScenario.node[32].nic.mac1609_4 	SNIRLostPackets 	8
scalar MyScenario.node[32].nic.mac1609_4 	RXTXLostPackets 	6
scalar MyScenario.node[32].nic.mac1609_4 	TotalLostPackets 	14
scalar MyScenario.node[32].nic.mac1609_4 	DroppedPacketsInMac 	0
scalar MyScenario.node[32].nic.mac1609_4 	TooLittleTime 	0
scalar MyScenario.node[32].nic.mac1609_4 	TimesIntoBackoff 	1
scalar MyScenario.node[32].nic.mac1609_4 	SlotsBackoff 	0
scalar MyScenario.node[32].nic.mac1609_4 	NumInternalContention 	0
scalar MyScenario.node[32].nic.mac1609_4 	totalBusyTime 	0.002089
scalar MyScenario.node[32].veinsmobility 	startTime 	1
scalar MyScenario.node[32].veinsmobility 	totalTime 	62
scalar MyScenario.node[32].veinsmobility 	stopTime 	64
scalar MyScenario.node[32].veinsmobility 	minSpeed 	1.6420063687023
scalar MyScenario.node[32].veinsmobility 	maxSpeed 	13.889750666567
scalar MyScenario.node[32].veinsmobility 	totalDistance 	683.21370545996
scalar MyScenario.node[32].veinsmobility 	totalCO2Emission 	204.77725187776
scalar MyScenario.node[1].appl 	generatedWSMs 	0
scalar MyScenario.node[1].appl 	receivedWSMs 	0
scalar MyScenario.node[1].appl 	generatedBSMs 	0
scalar MyScenario.node[1].appl 	receivedBSMs 	0
scalar MyScenario.node[1].appl 	generatedWSAs 	0
scalar MyScenario.node[1].appl 	receivedWSAs 	0
scalar MyScenario.node[1].nic.phy80211p 	busyTime 	1.8125e-05
scalar MyScenario.node[1].nic.mac1609_4 	ReceivedUnicastPackets 	0
scalar MyScenario.node[1].nic.mac1609_4 	ReceivedBroadcasts 	0
scalar MyScenario.node[1].nic.mac1609_4 	SentPackets 	0
scalar MyScenario.node[1].nic.mac1609_4 	SNIRLostPackets 	5
scalar MyScenario.node[1].nic.mac1609_4 	RXTXLostPackets 	0
scalar MyScenario.node[1].nic.mac1609_4 	TotalLostPackets 	5
scalar MyScenario.node[1].nic.mac1609_4 	DroppedPacketsInMac 	0
scalar MyScenario.node[1].nic.mac1609_4 	TooLittleTime 	0
scalar MyScenario.node[1].nic.mac1609_4 	TimesIntoBackoff 	0
scalar MyScenario.node[1].nic.mac1609_4 	SlotsBackoff 	0
scalar MyScenario.node[1].nic.mac1609_4 	NumInternalContention 	0
scalar MyScenario.node[1].nic.mac1609_4 	totalBusyTime 	0.000464
scalar MyScenario.node[1].veinsmobility 	startTime 	1
scalar MyScenario.node[1].veinsmobility 	totalTime 	63
scalar MyScenario.node[1].veinsmobility 	stopTime 	65
scalar MyScenario.node[1].veinsmobility 	minSpeed 	1.9843095479766
scalar MyScenario.node[1].veinsmobility 	maxSpeed 	13.886917197378
scalar MyScenario.node[1].veinsmobility 	totalDistance 	672.04815388074
scalar MyScenario.node[1].veinsmobility 	totalCO2Emission 	210.87473604474
scalar MyScenario.node[17].appl 	generatedWSMs 	0
scalar MyScenario.node[17].appl 	receivedWSMs 	0
scalar MyScenario.node[17].appl 	generatedBSMs 	0
scalar MyScenario.node[17].appl 	receivedBSMs 	0
scalar MyScenario.node[17].appl 	generatedWSAs 	0
scalar MyScenario.node[17].appl 	receivedWSAs 	0
scalar MyScenario.node[17].nic.phy80211p 	busyTime 	1.45e-05
scalar MyScenario.node[17].nic.mac1609_4 	ReceivedUnicastPackets 	0
scalar MyScenario.node[17].nic.mac1609_4 	ReceivedBroadcasts 	0
scalar MyScenario.node[17].nic.mac1609_4 	SentPackets 	0
scalar MyScenario.node[17].nic.mac1609_4 	SNIRLostPackets 	4
scalar MyScenario.node[17].nic.mac1609_4 	RXTXLostPackets 	0
scalar MyScenario.node[17].nic.mac1609_4 	TotalLostPackets 	4
scalar MyScenario.node[17].nic.mac1609_4 	DroppedPacketsInMac 	0
scalar MyScenario.node[17].nic.mac1609_4 	TooLittleTime 	0
scalar MyScenario.node[17].nic.mac1609_4 	TimesIntoBackoff 	0
scalar MyScenario.node[17].nic.mac1609_4 	SlotsBackoff 	0
scalar MyScenario.node[17].nic.mac1609_4 	NumInternalContention 	0
scalar MyScenario.node[17].nic.mac1609_4 	totalBusyTime 	0.000464
scalar MyScenario.node[17].veinsmobility 	startTime 	1
scalar MyScenario.node[17].veinsmobility 	totalTime 	63
scalar MyScenario.node[17].veinsmobility 	stopTime 	65
scalar MyScenario.node[17].veinsmobility 	minSpeed 	1.5853120716522
scalar MyScenario.node[17].veinsmobility 	maxSpeed 	13.885238337656
scalar MyScenario.node[17].veinsmobility 	totalDistance 	780.54457980442
scalar MyScenario.node[17].veinsmobility 	totalCO2Emission 	173.92870966301
scalar MyScenario.node[16].appl 	generatedWSMs 	0
scalar MyScenario.node[16].appl 	receivedWSMs 	0
scalar MyScenario.node[16].appl 	generatedBSMs 	0
scalar MyScenario.node[16].appl 	receivedBSMs 	0
scalar MyScenario.node[16].appl 	generatedWSAs 	0
scalar MyScenario.node[16].appl 	receivedWSAs 	0
scalar MyScenario.node[16].nic.phy80211p 	busyTime 	0
scalar MyScenario.node[16].nic.mac1609_4 	ReceivedUnicastPackets 	0
scalar MyScenario.node[16].nic.mac1609_4 	ReceivedBroadcasts 	0
scalar MyScenario.node[16].nic.mac1609_4 	SentPackets 	0
scalar MyScenario.node[16].nic.mac1609_4 	SNIRLostPackets 	0
scalar MyScenario.node[16].nic.mac1609_4 	RXTXLostPackets 	0
scalar MyScenario.node[16].nic.mac1609_4 	TotalLostPackets 	0
scalar MyScenario.node[16].nic.mac1609_4 	DroppedPacketsInMac 	0
scalar MyScenario.node[16].nic.mac1609_4 	TooLittleTime 	0
scalar MyScenario.node[16].nic.mac1609_4 	TimesIntoBackoff 	0
scalar MyScenario.node[16].nic.mac1609_4 	SlotsBackoff 	0
scalar MyScenario.node[16].nic.mac1609_4 	NumInternalContention 	0
scalar MyScenario.node[16].nic.mac1609_4 	totalBusyTime 	0
scalar MyScenario.node[16].veinsmobility 	startTime 	1
scalar MyScenario.node[16].veinsmobility 	totalTime 	65
scalar MyScenario.node[16].veinsmobility 	stopTime 	67
scalar MyScenario.node[16].veinsmobility 	minSpeed 	1.3731275021331
scalar MyScenario.node[16].veinsmobility 	maxSpeed 	13.899757271959
scalar MyScenario.node[16].veinsmobility 	totalDistance 	758.16784255549
scalar MyScenario.node[16].veinsmobility 	totalCO2Emission 	206.79377360569
scalar MyScenario.node[46].appl 	generatedWSMs 	1
scalar MyScenario.node[46].appl 	receivedWSMs 	12
scalar MyScenario.node[46].appl 	generatedBSMs 	0
scalar MyScenario.node[46].appl 	receivedBSMs 	0
scalar MyScenario.node[46].appl 	generatedWSAs 	0
scalar MyScenario.node[46].appl 	receivedWSAs 	0
scalar MyScenario.node[46].nic.phy80211p 	busyTime 	0.00010388059701493
scalar MyScenario.node[46].nic.mac1609_4 	ReceivedUnicastPackets 	0
scalar MyScenario.node[46].nic.mac1609_4 	ReceivedBroadcasts 	12
scalar MyScenario.node[46].nic.mac1609_4 	SentPackets 	1
scalar MyScenario.node[46].nic.mac1609_4 	SNIRLostPackets 	18
scalar MyScenario.node[46].nic.mac1609_4 	RXTXLostPackets 	6
scalar MyScenario.node[46].nic.mac1609_4 	TotalLostPackets 	24
scalar MyScenario.node[46].nic.mac1609_4 	DroppedPacketsInMac 	0
scalar MyScenario.node[46].nic.mac1609_4 	TooLittleTime 	0
scalar MyScenario.node[46].nic.mac1609_4 	TimesIntoBackoff 	1
scalar MyScenario.node[46].nic.mac1609_4 	SlotsBackoff 	1
scalar MyScenario.node[46].nic.mac1609_4 	NumInternalContention 	0
scalar MyScenario.node[46].nic.mac1609_4 	totalBusyTime 	0.004177
scalar MyScenario.node[46].veinsmobility 	startTime 	1
scalar MyScenario.node[46].veinsmobility 	totalTime 	66
scalar MyScenario.node[46].veinsmobility 	stopTime 	68
scalar MyScenario.node[46].veinsmobility 	minSpeed 	0.027970061542224
scalar MyScenario.node[46].veinsmobility 	maxSpeed 	13.809183277399
scalar MyScenario.node[46].veinsmobility 	totalDistance 	672.5160141467
scalar MyScenario.node[46].veinsmobility 	totalCO2Emission 	222.73548996622
scalar MyScenario.node[64].appl 	generatedWSMs 	1
scalar MyScenario.node[64].appl 	receivedWSMs 	2
scalar MyScenario.node[64].appl 	generatedBSMs 	0
scalar MyScenario.node[64].appl 	receivedBSMs 	0
scalar MyScenario.node[64].appl 	generatedWSAs 	0
scalar MyScenario.node[64].appl 	receivedWSAs 	0
scalar MyScenario.node[64].nic.phy80211p 	busyTime 	5.7159420289855e-05
scalar MyScenario.node[64].nic.mac1609_4 	ReceivedUnicastPackets 	0
scalar MyScenario.node[64].nic.mac1609_4 	ReceivedBroadcasts 	2
scalar MyScenario.node[64].nic.mac1609_4 	SentPackets 	1
scalar MyScenario.node[64].nic.mac1609_4 	SNIRLostPackets 	15
scalar MyScenario.node[64].nic.mac1609_4 	RXTXLostPackets 	2
scalar MyScenario.node[64].nic.mac1609_4 	TotalLostPackets 	17
scalar MyScenario.node[64].nic.mac1609_4 	DroppedPacketsInMac 	0
scalar MyScenario.node[64].nic.mac1609_4 	TooLittleTime 	0
scalar MyScenario.node[64].nic.mac1609_4 	TimesIntoBackoff 	1
scalar MyScenario.node[64].nic.mac1609_4 	SlotsBackoff 	2
scalar MyScenario.node[64].nic.mac1609_4 	NumInternalContention 	0
scalar MyScenario.node[64].nic.mac1609_4 	totalBusyTime 	0.001625
scalar MyScenario.node[64].veinsmobility 	startTime 	1
scalar MyScenario.node[64].veinsmobility 	totalTime 	68
scalar MyScenario.node[64].veinsmobility 	stopTime 	70
scalar MyScenario.node[64].veinsmobility 	minSpeed 	0.25610868859714
scalar MyScenario.node[64].veinsmobility 	maxSpeed 	13.899100984586
scalar MyScenario.node[64].veinsmobility 	totalDistance 	678.86013552174
scalar MyScenario.node[64].veinsmobility 	totalCO2Emission 	252.03841266848
scalar MyScenario.node[90].appl 	generatedWSMs 	0
scalar MyScenario.node[90].appl 	receivedWSMs 	0
scalar MyScenario.node[90].appl 	generatedBSMs 	0
scalar MyScenario.node[90].appl 	receivedBSMs 	0
scalar MyScenario.node[90].appl 	generatedWSAs 	0
scalar MyScenario.node[90].appl 	receivedWSAs 	0
scalar MyScenario.node[90].nic.phy80211p 	busyTime 	0
scalar MyScenario.node[90].nic.mac1609_4 	ReceivedUnicastPackets 	0
scalar MyScenario.node[90].nic.mac1609_4 	ReceivedBroadcasts 	0
scalar MyScenario.node[90].nic.mac1609_4 	SentPackets 	0
scalar MyScenario.node[90].nic.mac1609_4 	SNIRLostPackets 	0
scalar MyScenario.node[90].nic.mac1609_4 	RXTXLostPackets 	0
scalar MyScenario.node[90].nic.mac1609_4 	TotalLostPackets 	0
scalar MyScenario.node[90].nic.mac1609_4 	DroppedPacketsInMac 	0
scalar MyScenario.node[90].nic.mac1609_4 	TooLittleTime 	0
scalar MyScenario.node[90].nic.mac1609_4 	TimesIntoBackoff 	0
scalar MyScenario.node[90].nic.mac1609_4 	SlotsBackoff 	0
scalar MyScenario.node[90].nic.mac1609_4 	NumInternalContention 	0
scalar MyScenario.node[90].nic.mac1609_4 	totalBusyTime 	0
scalar MyScenario.node[90].veinsmobility 	startTime 	4
scalar MyScenario.node[90].veinsmobility 	totalTime 	66
scalar MyScenario.node[90].veinsmobility 	stopTime 	71
scalar MyScenario.node[90].veinsmobility 	minSpeed 	2.15931934861
scalar MyScenario.node[90].veinsmobility 	maxSpeed 	13.829970169626
scalar MyScenario.node[90].veinsmobility 	totalDistance 	770.61413853566
[...]
scalar MyScenario.node[25].nic.mac1609_4 	ReceivedBroadcasts 	0
scalar MyScenario.node[25].nic.mac1609_4 	SentPackets 	0
scalar MyScenario.node[25].nic.mac1609_4 	SNIRLostPackets 	0
scalar MyScenario.node[25].nic.mac1609_4 	RXTXLostPackets 	0
scalar MyScenario.node[25].nic.mac1609_4 	TotalLostPackets 	0
scalar MyScenario.node[25].nic.mac1609_4 	DroppedPacketsInMac 	0
scalar MyScenario.node[25].nic.mac1609_4 	TooLittleTime 	0
scalar MyScenario.node[25].nic.mac1609_4 	TimesIntoBackoff 	0
scalar MyScenario.node[25].nic.mac1609_4 	SlotsBackoff 	0
scalar MyScenario.node[25].nic.mac1609_4 	NumInternalContention 	0
scalar MyScenario.node[25].nic.mac1609_4 	totalBusyTime 	0
scalar MyScenario.node[25].veinsmobility 	startTime 	1
scalar MyScenario.node[25].veinsmobility 	totalTime 	102
scalar MyScenario.node[25].veinsmobility 	stopTime 	104
scalar MyScenario.node[25].veinsmobility 	minSpeed 	2.0975643285317
scalar MyScenario.node[25].veinsmobility 	maxSpeed 	13.893885762873
scalar MyScenario.node[25].veinsmobility 	totalDistance 	1167.7074889358
scalar MyScenario.node[25].veinsmobility 	totalCO2Emission 	321.69300384412
scalar MyScenario.node[59].appl 	generatedWSMs 	1
scalar MyScenario.node[59].appl 	receivedWSMs 	11
scalar MyScenario.node[59].appl 	generatedBSMs 	0
scalar MyScenario.node[59].appl 	receivedBSMs 	0
scalar MyScenario.node[59].appl 	generatedWSAs 	0
scalar MyScenario.node[59].appl 	receivedWSAs 	0
scalar MyScenario.node[59].nic.phy80211p 	busyTime 	2.4776699029126e-05
scalar MyScenario.node[59].nic.mac1609_4 	ReceivedUnicastPackets 	0
scalar MyScenario.node[59].nic.mac1609_4 	ReceivedBroadcasts 	11
scalar MyScenario.node[59].nic.mac1609_4 	SentPackets 	1
scalar MyScenario.node[59].nic.mac1609_4 	SNIRLostPackets 	0
scalar MyScenario.node[59].nic.mac1609_4 	RXTXLostPackets 	8
scalar MyScenario.node[59].nic.mac1609_4 	TotalLostPackets 	8
scalar MyScenario.node[59].nic.mac1609_4 	DroppedPacketsInMac 	0
scalar MyScenario.node[59].nic.mac1609_4 	TooLittleTime 	0
scalar MyScenario.node[59].nic.mac1609_4 	TimesIntoBackoff 	1
scalar MyScenario.node[59].nic.mac1609_4 	SlotsBackoff 	2
scalar MyScenario.node[59].nic.mac1609_4 	NumInternalContention 	0
scalar MyScenario.node[59].nic.mac1609_4 	totalBusyTime 	0.002785
scalar MyScenario.node[59].veinsmobility 	startTime 	1
scalar MyScenario.node[59].veinsmobility 	totalTime 	102
scalar MyScenario.node[59].veinsmobility 	stopTime 	104
scalar MyScenario.node[59].veinsmobility 	minSpeed 	0.85645803394156
scalar MyScenario.node[59].veinsmobility 	maxSpeed 	13.878432014305
scalar MyScenario.node[59].veinsmobility 	totalDistance 	1068.6514568757
scalar MyScenario.node[59].veinsmobility 	totalCO2Emission 	364.8300083349
scalar MyScenario.node[67].appl 	generatedWSMs 	1
scalar MyScenario.node[67].appl 	receivedWSMs 	38
scalar MyScenario.node[67].appl 	generatedBSMs 	0
scalar MyScenario.node[67].appl 	receivedBSMs 	0
scalar MyScenario.node[67].appl 	generatedWSAs 	0
scalar MyScenario.node[67].appl 	receivedWSAs 	0
scalar MyScenario.node[67].nic.phy80211p 	busyTime 	9.1461538461538e-05
scalar MyScenario.node[67].nic.mac1609_4 	ReceivedUnicastPackets 	0
scalar MyScenario.node[67].nic.mac1609_4 	ReceivedBroadcasts 	38
scalar MyScenario.node[67].nic.mac1609_4 	SentPackets 	1
scalar MyScenario.node[67].nic.mac1609_4 	SNIRLostPackets 	3
scalar MyScenario.node[67].nic.mac1609_4 	RXTXLostPackets 	6
scalar MyScenario.node[67].nic.mac1609_4 	TotalLostPackets 	9
scalar MyScenario.node[67].nic.mac1609_4 	DroppedPacketsInMac 	0
scalar MyScenario.node[67].nic.mac1609_4 	TooLittleTime 	0
scalar MyScenario.node[67].nic.mac1609_4 	TimesIntoBackoff 	1
scalar MyScenario.node[67].nic.mac1609_4 	SlotsBackoff 	0
scalar MyScenario.node[67].nic.mac1609_4 	NumInternalContention 	0
scalar MyScenario.node[67].nic.mac1609_4 	totalBusyTime 	0.009745
scalar MyScenario.node[67].veinsmobility 	startTime 	1
scalar MyScenario.node[67].veinsmobility 	totalTime 	103
scalar MyScenario.node[67].veinsmobility 	stopTime 	105
scalar MyScenario.node[67].veinsmobility 	minSpeed 	1.4985727415653
scalar MyScenario.node[67].veinsmobility 	maxSpeed 	13.887411686941
scalar MyScenario.node[67].veinsmobility 	totalDistance 	1169.4377479147
scalar MyScenario.node[67].veinsmobility 	totalCO2Emission 	351.93498683385
scalar MyScenario.node[76].appl 	generatedWSMs 	1
scalar MyScenario.node[76].appl 	receivedWSMs 	16
scalar MyScenario.node[76].appl 	generatedBSMs 	0
scalar MyScenario.node[76].appl 	receivedBSMs 	0
scalar MyScenario.node[76].appl 	generatedWSAs 	0
scalar MyScenario.node[76].appl 	receivedWSAs 	0
scalar MyScenario.node[76].nic.phy80211p 	busyTime 	5.1307692307692e-05
scalar MyScenario.node[76].nic.mac1609_4 	ReceivedUnicastPackets 	0
scalar MyScenario.node[76].nic.mac1609_4 	ReceivedBroadcasts 	16
scalar MyScenario.node[76].nic.mac1609_4 	SentPackets 	1
scalar MyScenario.node[76].nic.mac1609_4 	SNIRLostPackets 	7
scalar MyScenario.node[76].nic.mac1609_4 	RXTXLostPackets 	1
scalar MyScenario.node[76].nic.mac1609_4 	TotalLostPackets 	8
scalar MyScenario.node[76].nic.mac1609_4 	DroppedPacketsInMac 	0
scalar MyScenario.node[76].nic.mac1609_4 	TooLittleTime 	0
scalar MyScenario.node[76].nic.mac1609_4 	TimesIntoBackoff 	1
scalar MyScenario.node[76].nic.mac1609_4 	SlotsBackoff 	0
scalar MyScenario.node[76].nic.mac1609_4 	NumInternalContention 	0
scalar MyScenario.node[76].nic.mac1609_4 	totalBusyTime 	0.004873040683
scalar MyScenario.node[76].veinsmobility 	startTime 	1
scalar MyScenario.node[76].veinsmobility 	totalTime 	103
scalar MyScenario.node[76].veinsmobility 	stopTime 	105
scalar MyScenario.node[76].veinsmobility 	minSpeed 	1.4385719059337e-07
scalar MyScenario.node[76].veinsmobility 	maxSpeed 	13.842004013481
scalar MyScenario.node[76].veinsmobility 	totalDistance 	869.32430381814
scalar MyScenario.node[76].veinsmobility 	totalCO2Emission 	301.71359339205
scalar MyScenario.node[24].appl 	generatedWSMs 	1
scalar MyScenario.node[24].appl 	receivedWSMs 	26
scalar MyScenario.node[24].appl 	generatedBSMs 	0
scalar MyScenario.node[24].appl 	receivedBSMs 	0
scalar MyScenario.node[24].appl 	generatedWSAs 	0
scalar MyScenario.node[24].appl 	receivedWSAs 	0
scalar MyScenario.node[24].nic.phy80211p 	busyTime 	6.7214953271028e-05
scalar MyScenario.node[24].nic.mac1609_4 	ReceivedUnicastPackets 	0
scalar MyScenario.node[24].nic.mac1609_4 	ReceivedBroadcasts 	26
scalar MyScenario.node[24].nic.mac1609_4 	SentPackets 	1
scalar MyScenario.node[24].nic.mac1609_4 	SNIRLostPackets 	5
scalar MyScenario.node[24].nic.mac1609_4 	RXTXLostPackets 	1
scalar MyScenario.node[24].nic.mac1609_4 	TotalLostPackets 	6
scalar MyScenario.node[24].nic.mac1609_4 	DroppedPacketsInMac 	0
scalar MyScenario.node[24].nic.mac1609_4 	TooLittleTime 	0
scalar MyScenario.node[24].nic.mac1609_4 	TimesIntoBackoff 	1
scalar MyScenario.node[24].nic.mac1609_4 	SlotsBackoff 	2
scalar MyScenario.node[24].nic.mac1609_4 	NumInternalContention 	0
scalar MyScenario.node[24].nic.mac1609_4 	totalBusyTime 	0.006961
scalar MyScenario.node[24].veinsmobility 	startTime 	1
scalar MyScenario.node[24].veinsmobility 	totalTime 	106
scalar MyScenario.node[24].veinsmobility 	stopTime 	108
scalar MyScenario.node[24].veinsmobility 	minSpeed 	0.002792265340423
scalar MyScenario.node[24].veinsmobility 	maxSpeed 	13.896065559238
scalar MyScenario.node[24].veinsmobility 	totalDistance 	1073.6338325322
scalar MyScenario.node[24].veinsmobility 	totalCO2Emission 	348.46623309818
scalar MyScenario.node[21].appl 	generatedWSMs 	1
scalar MyScenario.node[21].appl 	receivedWSMs 	2
scalar MyScenario.node[21].appl 	generatedBSMs 	0
scalar MyScenario.node[21].appl 	receivedBSMs 	0
scalar MyScenario.node[21].appl 	generatedWSAs 	0
scalar MyScenario.node[21].appl 	receivedWSAs 	0
scalar MyScenario.node[21].nic.phy80211p 	busyTime 	6.2142857142857e-06
scalar MyScenario.node[21].nic.mac1609_4 	ReceivedUnicastPackets 	0
scalar MyScenario.node[21].nic.mac1609_4 	ReceivedBroadcasts 	2
scalar MyScenario.node[21].nic.mac1609_4 	SentPackets 	1
scalar MyScenario.node[21].nic.mac1609_4 	SNIRLostPackets 	1
scalar MyScenario.node[21].nic.mac1609_4 	RXTXLostPackets 	0
scalar MyScenario.node[21].nic.mac1609_4 	TotalLostPackets 	1
scalar MyScenario.node[21].nic.mac1609_4 	DroppedPacketsInMac 	0
scalar MyScenario.node[21].nic.mac1609_4 	TooLittleTime 	0
scalar MyScenario.node[21].nic.mac1609_4 	TimesIntoBackoff 	1
scalar MyScenario.node[21].nic.mac1609_4 	SlotsBackoff 	3
scalar MyScenario.node[21].nic.mac1609_4 	NumInternalContention 	0
scalar MyScenario.node[21].nic.mac1609_4 	totalBusyTime 	0.000929
scalar MyScenario.node[21].veinsmobility 	startTime 	1
scalar MyScenario.node[21].veinsmobility 	totalTime 	111
scalar MyScenario.node[21].veinsmobility 	stopTime 	113
scalar MyScenario.node[21].veinsmobility 	minSpeed 	3.7370974043737e-05
scalar MyScenario.node[21].veinsmobility 	maxSpeed 	13.884126320994
scalar MyScenario.node[21].veinsmobility 	totalDistance 	1169.3129142083
scalar MyScenario.node[21].veinsmobility 	totalCO2Emission 	345.63933230712
scalar MyScenario.node[94].appl 	generatedWSMs 	1
scalar MyScenario.node[94].appl 	receivedWSMs 	25
scalar MyScenario.node[94].appl 	generatedBSMs 	0
scalar MyScenario.node[94].appl 	receivedBSMs 	0
scalar MyScenario.node[94].appl 	generatedWSAs 	0
scalar MyScenario.node[94].appl 	receivedWSAs 	0
scalar MyScenario.node[94].nic.phy80211p 	busyTime 	6.2702702702703e-05
scalar MyScenario.node[94].nic.mac1609_4 	ReceivedUnicastPackets 	0
scalar MyScenario.node[94].nic.mac1609_4 	ReceivedBroadcasts 	25
scalar MyScenario.node[94].nic.mac1609_4 	SentPackets 	1
scalar MyScenario.node[94].nic.mac1609_4 	SNIRLostPackets 	5
scalar MyScenario.node[94].nic.mac1609_4 	RXTXLostPackets 	5
scalar MyScenario.node[94].nic.mac1609_4 	TotalLostPackets 	10
scalar MyScenario.node[94].nic.mac1609_4 	DroppedPacketsInMac 	0
scalar MyScenario.node[94].nic.mac1609_4 	TooLittleTime 	0
scalar MyScenario.node[94].nic.mac1609_4 	TimesIntoBackoff 	1
scalar MyScenario.node[94].nic.mac1609_4 	SlotsBackoff 	0
scalar MyScenario.node[94].nic.mac1609_4 	NumInternalContention 	0
scalar MyScenario.node[94].nic.mac1609_4 	totalBusyTime 	0.006497035529
scalar MyScenario.node[94].veinsmobility 	startTime 	4
scalar MyScenario.node[94].veinsmobility 	totalTime 	110
scalar MyScenario.node[94].veinsmobility 	stopTime 	115
scalar MyScenario.node[94].veinsmobility 	minSpeed 	1.6714863121044
scalar MyScenario.node[94].veinsmobility 	maxSpeed 	13.853534516809
scalar MyScenario.node[94].veinsmobility 	totalDistance 	1271.5038293113
scalar MyScenario.node[94].veinsmobility 	totalCO2Emission 	365.42671685268
scalar MyScenario.node[19].appl 	generatedWSMs 	1
scalar MyScenario.node[19].appl 	receivedWSMs 	5
scalar MyScenario.node[19].appl 	generatedBSMs 	0
scalar MyScenario.node[19].appl 	receivedBSMs 	0
scalar MyScenario.node[19].appl 	generatedWSAs 	0
scalar MyScenario.node[19].appl 	receivedWSAs 	0
scalar MyScenario.node[19].nic.phy80211p 	busyTime 	2.824347826087e-05
scalar MyScenario.node[19].nic.mac1609_4 	ReceivedUnicastPackets 	0
scalar MyScenario.node[19].nic.mac1609_4 	ReceivedBroadcasts 	5
scalar MyScenario.node[19].nic.mac1609_4 	SentPackets 	1
scalar MyScenario.node[19].nic.mac1609_4 	SNIRLostPackets 	9
scalar MyScenario.node[19].nic.mac1609_4 	RXTXLostPackets 	4
scalar MyScenario.node[19].nic.mac1609_4 	TotalLostPackets 	13
scalar MyScenario.node[19].nic.mac1609_4 	DroppedPacketsInMac 	0
scalar MyScenario.node[19].nic.mac1609_4 	TooLittleTime 	0
scalar MyScenario.node[19].nic.mac1609_4 	TimesIntoBackoff 	1
scalar MyScenario.node[19].nic.mac1609_4 	SlotsBackoff 	1
scalar MyScenario.node[19].nic.mac1609_4 	NumInternalContention 	0
scalar MyScenario.node[19].nic.mac1609_4 	totalBusyTime 	0.002089
scalar MyScenario.node[19].veinsmobility 	startTime 	1
scalar MyScenario.node[19].veinsmobility 	totalTime 	114
scalar MyScenario.node[19].veinsmobility 	stopTime 	116
scalar MyScenario.node[19].veinsmobility 	minSpeed 	1.9124366020085
scalar MyScenario.node[19].veinsmobility 	maxSpeed 	13.889846721105
scalar MyScenario.node[19].veinsmobility 	totalDistance 	1365.2924900601
scalar MyScenario.node[19].veinsmobility 	totalCO2Emission 	326.95017142779
scalar MyScenario.node[39].appl 	generatedWSMs 	1
scalar MyScenario.node[39].appl 	receivedWSMs 	22
scalar MyScenario.node[39].appl 	generatedBSMs 	0
scalar MyScenario.node[39].appl 	receivedBSMs 	0
scalar MyScenario.node[39].appl 	generatedWSAs 	0
scalar MyScenario.node[39].appl 	receivedWSAs 	0
scalar MyScenario.node[39].nic.phy80211p 	busyTime 	5.8487394957983e-05
scalar MyScenario.node[39].nic.mac1609_4 	ReceivedUnicastPackets 	0
scalar MyScenario.node[39].nic.mac1609_4 	ReceivedBroadcasts 	22
scalar MyScenario.node[39].nic.mac1609_4 	SentPackets 	1
scalar MyScenario.node[39].nic.mac1609_4 	SNIRLostPackets 	8
scalar MyScenario.node[39].nic.mac1609_4 	RXTXLostPackets 	6
scalar MyScenario.node[39].nic.mac1609_4 	TotalLostPackets 	14
scalar MyScenario.node[39].nic.mac1609_4 	DroppedPacketsInMac 	0
scalar MyScenario.node[39].nic.mac1609_4 	TooLittleTime 	0
scalar MyScenario.node[39].nic.mac1609_4 	TimesIntoBackoff 	1
scalar MyScenario.node[39].nic.mac1609_4 	SlotsBackoff 	1
scalar MyScenario.node[39].nic.mac1609_4 	NumInternalContention 	0
scalar MyScenario.node[39].nic.mac1609_4 	totalBusyTime 	0.005801
scalar MyScenario.node[39].veinsmobility 	startTime 	1
scalar MyScenario.node[39].veinsmobility 	totalTime 	118
scalar MyScenario.node[39].veinsmobility 	stopTime 	120
scalar MyScenario.node[39].veinsmobility 	minSpeed 	2.2455468171276
scalar MyScenario.node[39].veinsmobility 	maxSpeed 	13.897740817978
scalar MyScenario.node[39].veinsmobility 	totalDistance 	1475.2431637354
scalar MyScenario.node[39].veinsmobility 	totalCO2Emission 	312.98568151247
scalar MyScenario.node[3].appl 	generatedWSMs 	1
scalar MyScenario.node[3].appl 	receivedWSMs 	23
scalar MyScenario.node[3].appl 	generatedBSMs 	0
scalar MyScenario.node[3].appl 	receivedBSMs 	0
scalar MyScenario.node[3].appl 	generatedWSAs 	0
scalar MyScenario.node[3].appl 	receivedWSAs 	0
scalar MyScenario.node[3].nic.phy80211p 	busyTime 	5.8e-05
scalar MyScenario.node[3].nic.mac1609_4 	ReceivedUnicastPackets 	0
scalar MyScenario.node[3].nic.mac1609_4 	ReceivedBroadcasts 	23
scalar MyScenario.node[3].nic.mac1609_4 	SentPackets 	1
scalar MyScenario.node[3].nic.mac1609_4 	SNIRLostPackets 	9
scalar MyScenario.node[3].nic.mac1609_4 	RXTXLostPackets 	1
scalar MyScenario.node[3].nic.mac1609_4 	TotalLostPackets 	10
scalar MyScenario.node[3].nic.mac1609_4 	DroppedPacketsInMac 	0
scalar MyScenario.node[3].nic.mac1609_4 	TooLittleTime 	0
scalar MyScenario.node[3].nic.mac1609_4 	TimesIntoBackoff 	1
scalar MyScenario.node[3].nic.mac1609_4 	SlotsBackoff 	1
scalar MyScenario.node[3].nic.mac1609_4 	NumInternalContention 	0
scalar MyScenario.node[3].nic.mac1609_4 	totalBusyTime 	0.006033
scalar MyScenario.node[3].veinsmobility 	startTime 	1
scalar MyScenario.node[3].veinsmobility 	totalTime 	127
scalar MyScenario.node[3].veinsmobility 	stopTime 	129
scalar MyScenario.node[3].veinsmobility 	minSpeed 	2.5262731315568
scalar MyScenario.node[3].veinsmobility 	maxSpeed 	13.868120549479
scalar MyScenario.node[3].veinsmobility 	totalDistance 	1471.453249546
scalar MyScenario.node[3].veinsmobility 	totalCO2Emission 	417.621726092
scalar MyScenario.node[34].appl 	generatedWSMs 	1
scalar MyScenario.node[34].appl 	receivedWSMs 	8
scalar MyScenario.node[34].appl 	generatedBSMs 	0
scalar MyScenario.node[34].appl 	receivedBSMs 	0
scalar MyScenario.node[34].appl 	generatedWSAs 	0
scalar MyScenario.node[34].appl 	receivedWSAs 	0
scalar MyScenario.node[34].nic.phy80211p 	busyTime 	3.7190839694656e-05
scalar MyScenario.node[34].nic.mac1609_4 	ReceivedUnicastPackets 	0
scalar MyScenario.node[34].nic.mac1609_4 	ReceivedBroadcasts 	8
scalar MyScenario.node[34].nic.mac1609_4 	SentPackets 	1
scalar MyScenario.node[34].nic.mac1609_4 	SNIRLostPackets 	13
scalar MyScenario.node[34].nic.mac1609_4 	RXTXLostPackets 	0
scalar MyScenario.node[34].nic.mac1609_4 	TotalLostPackets 	13
scalar MyScenario.node[34].nic.mac1609_4 	DroppedPacketsInMac 	0
scalar MyScenario.node[34].nic.mac1609_4 	TooLittleTime 	0
scalar MyScenario.node[34].nic.mac1609_4 	TimesIntoBackoff 	1
scalar MyScenario.node[34].nic.mac1609_4 	SlotsBackoff 	2
scalar MyScenario.node[34].nic.mac1609_4 	NumInternalContention 	0
scalar MyScenario.node[34].nic.mac1609_4 	totalBusyTime 	0.002785
scalar MyScenario.node[34].veinsmobility 	startTime 	1
scalar MyScenario.node[34].veinsmobility 	totalTime 	130
scalar MyScenario.node[34].veinsmobility 	stopTime 	132
scalar MyScenario.node[34].veinsmobility 	minSpeed 	0.040945521926592
scalar MyScenario.node[34].veinsmobility 	maxSpeed 	13.895785573428
scalar MyScenario.node[34].veinsmobility 	totalDistance 	1474.6003035527
scalar MyScenario.node[34].veinsmobility 	totalCO2Emission 	416.91094345295
scalar MyScenario.node[79].appl 	generatedWSMs 	1
scalar MyScenario.node[79].appl 	receivedWSMs 	8
scalar MyScenario.node[79].appl 	generatedBSMs 	0
scalar MyScenario.node[79].appl 	receivedBSMs 	0
scalar MyScenario.node[79].appl 	generatedWSAs 	0
scalar MyScenario.node[79].appl 	receivedWSAs 	0
scalar MyScenario.node[79].nic.phy80211p 	busyTime 	1.7313432835821e-05
scalar MyScenario.node[79].nic.mac1609_4 	ReceivedUnicastPackets 	0
scalar MyScenario.node[79].nic.mac1609_4 	ReceivedBroadcasts 	8
scalar MyScenario.node[79].nic.mac1609_4 	SentPackets 	1
scalar MyScenario.node[79].nic.mac1609_4 	SNIRLostPackets 	2
scalar MyScenario.node[79].nic.mac1609_4 	RXTXLostPackets 	9
scalar MyScenario.node[79].nic.mac1609_4 	TotalLostPackets 	11
scalar MyScenario.node[79].nic.mac1609_4 	DroppedPacketsInMac 	0
scalar MyScenario.node[79].nic.mac1609_4 	TooLittleTime 	0
scalar MyScenario.node[79].nic.mac1609_4 	TimesIntoBackoff 	1
scalar MyScenario.node[79].nic.mac1609_4 	SlotsBackoff 	0
scalar MyScenario.node[79].nic.mac1609_4 	NumInternalContention 	0
scalar MyScenario.node[79].nic.mac1609_4 	totalBusyTime 	0.002321
scalar MyScenario.node[79].veinsmobility 	startTime 	1
scalar MyScenario.node[79].veinsmobility 	totalTime 	133
scalar MyScenario.node[79].veinsmobility 	stopTime 	135
scalar MyScenario.node[79].veinsmobility 	minSpeed 	2.318484536279
scalar MyScenario.node[79].veinsmobility 	maxSpeed 	13.820443315711
scalar MyScenario.node[79].veinsmobility 	totalDistance 	1562.2743216018
scalar MyScenario.node[79].veinsmobility 	totalCO2Emission 	413.44600445185
scalar MyScenario.node[84].appl 	generatedWSMs 	1
scalar MyScenario.node[84].appl 	receivedWSMs 	14
scalar MyScenario.node[84].appl 	generatedBSMs 	0
scalar MyScenario.node[84].appl 	receivedBSMs 	0
scalar MyScenario.node[84].appl 	generatedWSAs 	0
scalar MyScenario.node[84].appl 	receivedWSAs 	0
scalar MyScenario.node[84].nic.phy80211p 	busyTime 	2.6705035971223e-05
scalar MyScenario.node[84].nic.mac1609_4 	ReceivedUnicastPackets 	0
scalar MyScenario.node[84].nic.mac1609_4 	ReceivedBroadcasts 	14
scalar MyScenario.node[84].nic.mac1609_4 	SentPackets 	1
scalar MyScenario.node[84].nic.mac1609_4 	SNIRLostPackets 	2
scalar MyScenario.node[84].nic.mac1609_4 	RXTXLostPackets 	4
scalar MyScenario.node[84].nic.mac1609_4 	TotalLostPackets 	6
scalar MyScenario.node[84].nic.mac1609_4 	DroppedPacketsInMac 	0
scalar MyScenario.node[84].nic.mac1609_4 	TooLittleTime 	0
scalar MyScenario.node[84].nic.mac1609_4 	TimesIntoBackoff 	1
scalar MyScenario.node[84].nic.mac1609_4 	SlotsBackoff 	3
scalar MyScenario.node[84].nic.mac1609_4 	NumInternalContention 	0
scalar MyScenario.node[84].nic.mac1609_4 	totalBusyTime 	0.003945
scalar MyScenario.node[84].veinsmobility 	startTime 	1
scalar MyScenario.node[84].veinsmobility 	totalTime 	138
scalar MyScenario.node[84].veinsmobility 	stopTime 	140
scalar MyScenario.node[84].veinsmobility 	minSpeed 	0.0087554299661385
scalar MyScenario.node[84].veinsmobility 	maxSpeed 	13.899522444769
scalar MyScenario.node[84].veinsmobility 	totalDistance 	1377.1179278166
scalar MyScenario.node[84].veinsmobility 	totalCO2Emission 	435.0614745996
