version 2
run General-10-20170829-17:39:01-8100
attr configname General
attr datetime 20170829-17:39:01
attr density 200
attr experiment General
attr inifile omnetpp.ini
attr iterationvars $density=200
attr iterationvars2 "$density=200, $repetition=0"
attr measurement $density=200
attr network com.liborio.pi.MyScenario
attr processid 8100
attr repetition 0
attr replication #0
attr resultdir results
attr runnumber 10
attr seedset 0
param **.coreDebug false
param **.debug false
param *.**.nic.mac1609_4.bitrate 6Mbps
param *.**.nic.mac1609_4.txPower 20mW
param *.**.nic.mac1609_4.useServiceChannel true
param *.**.nic.phy80211p.analogueModels "xmldoc(\"config.xml\")"
param *.**.nic.phy80211p.antenna "xmldoc(\"antenna.xml\", \"/root/Antenna[@id='monopole']\")"
param *.**.nic.phy80211p.decider "xmldoc(\"config.xml\")"
param *.**.nic.phy80211p.sensitivity -84.39dBm
param *.**.nic.phy80211p.thermalNoise -110dBm
param *.**.nic.phy80211p.usePropagationDelay true
param *.**.nic.phy80211p.useThermalNoise true
param *.annotations.draw true
param *.connectionManager.drawMaxIntfDist false
param *.connectionManager.maxInterfDist 2600m
param *.connectionManager.sendDirect true
param *.manager.autoShutdown true
param *.manager.host "\"localhost\""
param *.manager.launchConfig "xmldoc(string(${density = 100, 200, 300, 400})+\"_\"+ string(${repetition})+\".launchd.xml\")"
param *.manager.port 9999
param *.manager.updateInterval 1s
param *.node[*].appl.beaconInterval 1s
param *.node[*].appl.dataOnSch true
param *.node[*].appl.headerLength "80 bit"
param *.node[*].appl.isSource false
param *.node[*].appl.numMsgs 100
param *.node[*].appl.sendBeacons false
param *.node[*].appl.stopTrafficTime 130s
param *.node[*].appl.wsmInterval 3s
param *.node[*].applType "\"Flooding\""
param *.node[*].veinsmobility.x 0
param *.node[*].veinsmobility.y 0
param *.node[*].veinsmobility.z 1.895
param *.node[*].veinsmobilityType.debug true
param *.node[0].appl.isSource true
param *.playgroundSizeX 2500m
param *.playgroundSizeY 2500m
param *.playgroundSizeZ 50m

scalar . 	density 	200
scalar MyScenario.node[83].appl 	generatedWSMs 	0
scalar MyScenario.node[83].appl 	receivedWSMs 	0
scalar MyScenario.node[83].appl 	generatedBSMs 	0
scalar MyScenario.node[83].appl 	receivedBSMs 	0
scalar MyScenario.node[83].appl 	generatedWSAs 	0
scalar MyScenario.node[83].appl 	receivedWSAs 	0
scalar MyScenario.node[83].nic.phy80211p 	busyTime 	0
scalar MyScenario.node[83].nic.mac1609_4 	ReceivedUnicastPackets 	0
scalar MyScenario.node[83].nic.mac1609_4 	ReceivedBroadcasts 	0
scalar MyScenario.node[83].nic.mac1609_4 	SentPackets 	0
scalar MyScenario.node[83].nic.mac1609_4 	SNIRLostPackets 	0
scalar MyScenario.node[83].nic.mac1609_4 	RXTXLostPackets 	0
scalar MyScenario.node[83].nic.mac1609_4 	TotalLostPackets 	0
scalar MyScenario.node[83].nic.mac1609_4 	DroppedPacketsInMac 	0
scalar MyScenario.node[83].nic.mac1609_4 	TooLittleTime 	0
scalar MyScenario.node[83].nic.mac1609_4 	TimesIntoBackoff 	0
scalar MyScenario.node[83].nic.mac1609_4 	SlotsBackoff 	0
scalar MyScenario.node[83].nic.mac1609_4 	NumInternalContention 	0
scalar MyScenario.node[83].nic.mac1609_4 	totalBusyTime 	0
scalar MyScenario.node[83].veinsmobility 	startTime 	1
scalar MyScenario.node[83].veinsmobility 	totalTime 	8
scalar MyScenario.node[83].veinsmobility 	stopTime 	10
scalar MyScenario.node[83].veinsmobility 	minSpeed 	2.5968712079106
scalar MyScenario.node[83].veinsmobility 	maxSpeed 	13.398218081566
scalar MyScenario.node[83].veinsmobility 	totalDistance 	74.328777510091
scalar MyScenario.node[83].veinsmobility 	totalCO2Emission 	35.807573099854
scalar MyScenario.node[149].appl 	generatedWSMs 	0
scalar MyScenario.node[149].appl 	receivedWSMs 	0
scalar MyScenario.node[149].appl 	generatedBSMs 	0
scalar MyScenario.node[149].appl 	receivedBSMs 	0
scalar MyScenario.node[149].appl 	generatedWSAs 	0
scalar MyScenario.node[149].appl 	receivedWSAs 	0
scalar MyScenario.node[149].nic.phy80211p 	busyTime 	0
scalar MyScenario.node[149].nic.mac1609_4 	ReceivedUnicastPackets 	0
scalar MyScenario.node[149].nic.mac1609_4 	ReceivedBroadcasts 	0
scalar MyScenario.node[149].nic.mac1609_4 	SentPackets 	0
scalar MyScenario.node[149].nic.mac1609_4 	SNIRLostPackets 	0
scalar MyScenario.node[149].nic.mac1609_4 	RXTXLostPackets 	0
scalar MyScenario.node[149].nic.mac1609_4 	TotalLostPackets 	0
scalar MyScenario.node[149].nic.mac1609_4 	DroppedPacketsInMac 	0
scalar MyScenario.node[149].nic.mac1609_4 	TooLittleTime 	0
scalar MyScenario.node[149].nic.mac1609_4 	TimesIntoBackoff 	0
scalar MyScenario.node[149].nic.mac1609_4 	SlotsBackoff 	0
scalar MyScenario.node[149].nic.mac1609_4 	NumInternalContention 	0
scalar MyScenario.node[149].nic.mac1609_4 	totalBusyTime 	0
scalar MyScenario.node[149].veinsmobility 	startTime 	1
scalar MyScenario.node[149].veinsmobility 	totalTime 	9
scalar MyScenario.node[149].veinsmobility 	stopTime 	11
scalar MyScenario.node[149].veinsmobility 	minSpeed 	2.2205611141864
scalar MyScenario.node[149].veinsmobility 	maxSpeed 	13.511369186407
scalar MyScenario.node[149].veinsmobility 	totalDistance 	79.747134752781
scalar MyScenario.node[149].veinsmobility 	totalCO2Emission 	36.865879199899
scalar MyScenario.node[38].appl 	generatedWSMs 	0
scalar MyScenario.node[38].appl 	receivedWSMs 	0
scalar MyScenario.node[38].appl 	generatedBSMs 	0
scalar MyScenario.node[38].appl 	receivedBSMs 	0
scalar MyScenario.node[38].appl 	generatedWSAs 	0
scalar MyScenario.node[38].appl 	receivedWSAs 	0
scalar MyScenario.node[38].nic.phy80211p 	busyTime 	0
scalar MyScenario.node[38].nic.mac1609_4 	ReceivedUnicastPackets 	0
scalar MyScenario.node[38].nic.mac1609_4 	ReceivedBroadcasts 	0
scalar MyScenario.node[38].nic.mac1609_4 	SentPackets 	0
scalar MyScenario.node[38].nic.mac1609_4 	SNIRLostPackets 	0
scalar MyScenario.node[38].nic.mac1609_4 	RXTXLostPackets 	0
scalar MyScenario.node[38].nic.mac1609_4 	TotalLostPackets 	0
scalar MyScenario.node[38].nic.mac1609_4 	DroppedPacketsInMac 	0
scalar MyScenario.node[38].nic.mac1609_4 	TooLittleTime 	0
scalar MyScenario.node[38].nic.mac1609_4 	TimesIntoBackoff 	0
scalar MyScenario.node[38].nic.mac1609_4 	SlotsBackoff 	0
scalar MyScenario.node[38].nic.mac1609_4 	NumInternalContention 	0
scalar MyScenario.node[38].nic.mac1609_4 	totalBusyTime 	0
scalar MyScenario.node[38].veinsmobility 	startTime 	1
scalar MyScenario.node[38].veinsmobility 	totalTime 	10
scalar MyScenario.node[38].veinsmobility 	stopTime 	12
scalar MyScenario.node[38].veinsmobility 	minSpeed 	2.0327401927207
scalar MyScenario.node[38].veinsmobility 	maxSpeed 	13.350687751337
scalar MyScenario.node[38].veinsmobility 	totalDistance 	92.924256761731
scalar MyScenario.node[38].veinsmobility 	totalCO2Emission 	38.590451175709
scalar MyScenario.node[76].appl 	generatedWSMs 	0
scalar MyScenario.node[76].appl 	receivedWSMs 	0
scalar MyScenario.node[76].appl 	generatedBSMs 	0
scalar MyScenario.node[76].appl 	receivedBSMs 	0
scalar MyScenario.node[76].appl 	generatedWSAs 	0
scalar MyScenario.node[76].appl 	receivedWSAs 	0
scalar MyScenario.node[76].nic.phy80211p 	busyTime 	0
scalar MyScenario.node[76].nic.mac1609_4 	ReceivedUnicastPackets 	0
scalar MyScenario.node[76].nic.mac1609_4 	ReceivedBroadcasts 	0
scalar MyScenario.node[76].nic.mac1609_4 	SentPackets 	0
scalar MyScenario.node[76].nic.mac1609_4 	SNIRLostPackets 	0
scalar MyScenario.node[76].nic.mac1609_4 	RXTXLostPackets 	0
scalar MyScenario.node[76].nic.mac1609_4 	TotalLostPackets 	0
scalar MyScenario.node[76].nic.mac1609_4 	DroppedPacketsInMac 	0
scalar MyScenario.node[76].nic.mac1609_4 	TooLittleTime 	0
scalar MyScenario.node[76].nic.mac1609_4 	TimesIntoBackoff 	0
scalar MyScenario.node[76].nic.mac1609_4 	SlotsBackoff 	0
scalar MyScenario.node[76].nic.mac1609_4 	NumInternalContention 	0
scalar MyScenario.node[76].nic.mac1609_4 	totalBusyTime 	0
scalar MyScenario.node[76].veinsmobility 	startTime 	1
scalar MyScenario.node[76].veinsmobility 	totalTime 	10
scalar MyScenario.node[76].veinsmobility 	stopTime 	12
scalar MyScenario.node[76].veinsmobility 	minSpeed 	2.006804089318
scalar MyScenario.node[76].veinsmobility 	maxSpeed 	13.376225334662
scalar MyScenario.node[76].veinsmobility 	totalDistance 	91.405727660302
scalar MyScenario.node[76].veinsmobility 	totalCO2Emission 	39.979668294416
scalar MyScenario.node[148].appl 	generatedWSMs 	0
scalar MyScenario.node[148].appl 	receivedWSMs 	0
scalar MyScenario.node[148].appl 	generatedBSMs 	0
scalar MyScenario.node[148].appl 	receivedBSMs 	0
scalar MyScenario.node[148].appl 	generatedWSAs 	0
scalar MyScenario.node[148].appl 	receivedWSAs 	0
scalar MyScenario.node[148].nic.phy80211p 	busyTime 	0
scalar MyScenario.node[148].nic.mac1609_4 	ReceivedUnicastPackets 	0
scalar MyScenario.node[148].nic.mac1609_4 	ReceivedBroadcasts 	0
scalar MyScenario.node[148].nic.mac1609_4 	SentPackets 	0
scalar MyScenario.node[148].nic.mac1609_4 	SNIRLostPackets 	0
scalar MyScenario.node[148].nic.mac1609_4 	RXTXLostPackets 	0
scalar MyScenario.node[148].nic.mac1609_4 	TotalLostPackets 	0
scalar MyScenario.node[148].nic.mac1609_4 	DroppedPacketsInMac 	0
scalar MyScenario.node[148].nic.mac1609_4 	TooLittleTime 	0
scalar MyScenario.node[148].nic.mac1609_4 	TimesIntoBackoff 	0
scalar MyScenario.node[148].nic.mac1609_4 	SlotsBackoff 	0
scalar MyScenario.node[148].nic.mac1609_4 	NumInternalContention 	0
scalar MyScenario.node[148].nic.mac1609_4 	totalBusyTime 	0
scalar MyScenario.node[148].veinsmobility 	startTime 	1
scalar MyScenario.node[148].veinsmobility 	totalTime 	10
scalar MyScenario.node[148].veinsmobility 	stopTime 	12
scalar MyScenario.node[148].veinsmobility 	minSpeed 	1.8186493640533
scalar MyScenario.node[148].veinsmobility 	maxSpeed 	13.831442197622
scalar MyScenario.node[148].veinsmobility 	totalDistance 	91.617860691705
scalar MyScenario.node[148].veinsmobility 	totalCO2Emission 	41.871330631896
scalar MyScenario.node[200].appl 	generatedWSMs 	0
scalar MyScenario.node[200].appl 	receivedWSMs 	0
scalar MyScenario.node[200].appl 	generatedBSMs 	0
scalar MyScenario.node[200].appl 	receivedBSMs 	0
scalar MyScenario.node[200].appl 	generatedWSAs 	0
scalar MyScenario.node[200].appl 	receivedWSAs 	0
scalar MyScenario.node[200].nic.phy80211p 	busyTime 	0
scalar MyScenario.node[200].nic.mac1609_4 	ReceivedUnicastPackets 	0
scalar MyScenario.node[200].nic.mac1609_4 	ReceivedBroadcasts 	0
scalar MyScenario.node[200].nic.mac1609_4 	SentPackets 	0
scalar MyScenario.node[200].nic.mac1609_4 	SNIRLostPackets 	0
scalar MyScenario.node[200].nic.mac1609_4 	RXTXLostPackets 	0
scalar MyScenario.node[200].nic.mac1609_4 	TotalLostPackets 	0
scalar MyScenario.node[200].nic.mac1609_4 	DroppedPacketsInMac 	0
scalar MyScenario.node[200].nic.mac1609_4 	TooLittleTime 	0
scalar MyScenario.node[200].nic.mac1609_4 	TimesIntoBackoff 	0
scalar MyScenario.node[200].nic.mac1609_4 	SlotsBackoff 	0
scalar MyScenario.node[200].nic.mac1609_4 	NumInternalContention 	0
scalar MyScenario.node[200].nic.mac1609_4 	totalBusyTime 	0
scalar MyScenario.node[200].veinsmobility 	startTime 	11
scalar MyScenario.node[200].veinsmobility 	totalTime 	12
scalar MyScenario.node[200].veinsmobility 	stopTime 	24
scalar MyScenario.node[200].veinsmobility 	minSpeed 	13.021272298438
scalar MyScenario.node[200].veinsmobility 	maxSpeed 	13.886678847601
scalar MyScenario.node[200].veinsmobility 	totalDistance 	158.47408001129
scalar MyScenario.node[200].veinsmobility 	totalCO2Emission 	22.828130167862
scalar MyScenario.node[130].appl 	generatedWSMs 	0
scalar MyScenario.node[130].appl 	receivedWSMs 	0
scalar MyScenario.node[130].appl 	generatedBSMs 	0
scalar MyScenario.node[130].appl 	receivedBSMs 	0
scalar MyScenario.node[130].appl 	generatedWSAs 	0
scalar MyScenario.node[130].appl 	receivedWSAs 	0
scalar MyScenario.node[130].nic.phy80211p 	busyTime 	0
scalar MyScenario.node[130].nic.mac1609_4 	ReceivedUnicastPackets 	0
scalar MyScenario.node[130].nic.mac1609_4 	ReceivedBroadcasts 	0
scalar MyScenario.node[130].nic.mac1609_4 	SentPackets 	0
scalar MyScenario.node[130].nic.mac1609_4 	SNIRLostPackets 	0
scalar MyScenario.node[130].nic.mac1609_4 	RXTXLostPackets 	0
scalar MyScenario.node[130].nic.mac1609_4 	TotalLostPackets 	0
scalar MyScenario.node[130].nic.mac1609_4 	DroppedPacketsInMac 	0
scalar MyScenario.node[130].nic.mac1609_4 	TooLittleTime 	0
scalar MyScenario.node[130].nic.mac1609_4 	TimesIntoBackoff 	0
scalar MyScenario.node[130].nic.mac1609_4 	SlotsBackoff 	0
scalar MyScenario.node[130].nic.mac1609_4 	NumInternalContention 	0
scalar MyScenario.node[130].nic.mac1609_4 	totalBusyTime 	0
scalar MyScenario.node[130].veinsmobility 	startTime 	1
scalar MyScenario.node[130].veinsmobility 	totalTime 	26
scalar MyScenario.node[130].veinsmobility 	stopTime 	28
scalar MyScenario.node[130].veinsmobility 	minSpeed 	1.8409282227047
scalar MyScenario.node[130].veinsmobility 	maxSpeed 	13.703071177099
scalar MyScenario.node[130].veinsmobility 	totalDistance 	277.95273857613
scalar MyScenario.node[130].veinsmobility 	totalCO2Emission 	90.635177107598
scalar MyScenario.node[167].appl 	generatedWSMs 	0
scalar MyScenario.node[167].appl 	receivedWSMs 	0
scalar MyScenario.node[167].appl 	generatedBSMs 	0
scalar MyScenario.node[167].appl 	receivedBSMs 	0
scalar MyScenario.node[167].appl 	generatedWSAs 	0
scalar MyScenario.node[167].appl 	receivedWSAs 	0
scalar MyScenario.node[167].nic.phy80211p 	busyTime 	0
scalar MyScenario.node[167].nic.mac1609_4 	ReceivedUnicastPackets 	0
scalar MyScenario.node[167].nic.mac1609_4 	ReceivedBroadcasts 	0
scalar MyScenario.node[167].nic.mac1609_4 	SentPackets 	0
scalar MyScenario.node[167].nic.mac1609_4 	SNIRLostPackets 	0
scalar MyScenario.node[167].nic.mac1609_4 	RXTXLostPackets 	0
scalar MyScenario.node[167].nic.mac1609_4 	TotalLostPackets 	0
scalar MyScenario.node[167].nic.mac1609_4 	DroppedPacketsInMac 	0
scalar MyScenario.node[167].nic.mac1609_4 	TooLittleTime 	0
scalar MyScenario.node[167].nic.mac1609_4 	TimesIntoBackoff 	0
scalar MyScenario.node[167].nic.mac1609_4 	SlotsBackoff 	0
scalar MyScenario.node[167].nic.mac1609_4 	NumInternalContention 	0
scalar MyScenario.node[167].nic.mac1609_4 	totalBusyTime 	0
scalar MyScenario.node[167].veinsmobility 	startTime 	4
scalar MyScenario.node[167].veinsmobility 	totalTime 	25
scalar MyScenario.node[167].veinsmobility 	stopTime 	30
scalar MyScenario.node[167].veinsmobility 	minSpeed 	2.1511921731289
scalar MyScenario.node[167].veinsmobility 	maxSpeed 	13.660618765443
scalar MyScenario.node[167].veinsmobility 	totalDistance 	270.04613588199
scalar MyScenario.node[167].veinsmobility 	totalCO2Emission 	84.476157566975
scalar MyScenario.node[15].appl 	generatedWSMs 	0
scalar MyScenario.node[15].appl 	receivedWSMs 	0
scalar MyScenario.node[15].appl 	generatedBSMs 	0
scalar MyScenario.node[15].appl 	receivedBSMs 	0
scalar MyScenario.node[15].appl 	generatedWSAs 	0
scalar MyScenario.node[15].appl 	receivedWSAs 	0
scalar MyScenario.node[15].nic.phy80211p 	busyTime 	2.8121212121212e-05
scalar MyScenario.node[15].nic.mac1609_4 	ReceivedUnicastPackets 	0
scalar MyScenario.node[15].nic.mac1609_4 	ReceivedBroadcasts 	0
scalar MyScenario.node[15].nic.mac1609_4 	SentPackets 	0
scalar MyScenario.node[15].nic.mac1609_4 	SNIRLostPackets 	4
scalar MyScenario.node[15].nic.mac1609_4 	RXTXLostPackets 	0
scalar MyScenario.node[15].nic.mac1609_4 	TotalLostPackets 	4
scalar MyScenario.node[15].nic.mac1609_4 	DroppedPacketsInMac 	0
scalar MyScenario.node[15].nic.mac1609_4 	TooLittleTime 	0
scalar MyScenario.node[15].nic.mac1609_4 	TimesIntoBackoff 	0
scalar MyScenario.node[15].nic.mac1609_4 	SlotsBackoff 	0
scalar MyScenario.node[15].nic.mac1609_4 	NumInternalContention 	0
scalar MyScenario.node[15].nic.mac1609_4 	totalBusyTime 	0.000232
scalar MyScenario.node[15].veinsmobility 	startTime 	1
scalar MyScenario.node[15].veinsmobility 	totalTime 	32
scalar MyScenario.node[15].veinsmobility 	stopTime 	34
scalar MyScenario.node[15].veinsmobility 	minSpeed 	2.215249785874
scalar MyScenario.node[15].veinsmobility 	maxSpeed 	13.760570565588
scalar MyScenario.node[15].veinsmobility 	totalDistance 	369.33788987463
scalar MyScenario.node[15].veinsmobility 	totalCO2Emission 	102.412640768
scalar MyScenario.node[162].appl 	generatedWSMs 	0
scalar MyScenario.node[162].appl 	receivedWSMs 	0
scalar MyScenario.node[162].appl 	generatedBSMs 	0
scalar MyScenario.node[162].appl 	receivedBSMs 	0
scalar MyScenario.node[162].appl 	generatedWSAs 	0
scalar MyScenario.node[162].appl 	receivedWSAs 	0
scalar MyScenario.node[162].nic.phy80211p 	busyTime 	4.9212121212121e-05
scalar MyScenario.node[162].nic.mac1609_4 	ReceivedUnicastPackets 	0
scalar MyScenario.node[162].nic.mac1609_4 	ReceivedBroadcasts 	0
scalar MyScenario.node[162].nic.mac1609_4 	SentPackets 	0
scalar MyScenario.node[162].nic.mac1609_4 	SNIRLostPackets 	7
scalar MyScenario.node[162].nic.mac1609_4 	RXTXLostPackets 	0
scalar MyScenario.node[162].nic.mac1609_4 	TotalLostPackets 	7
scalar MyScenario.node[162].nic.mac1609_4 	DroppedPacketsInMac 	0
scalar MyScenario.node[162].nic.mac1609_4 	TooLittleTime 	0
scalar MyScenario.node[162].nic.mac1609_4 	TimesIntoBackoff 	0
scalar MyScenario.node[162].nic.mac1609_4 	SlotsBackoff 	0
scalar MyScenario.node[162].nic.mac1609_4 	NumInternalContention 	0
scalar MyScenario.node[162].nic.mac1609_4 	totalBusyTime 	0.000464
scalar MyScenario.node[162].veinsmobility 	startTime 	4
scalar MyScenario.node[162].veinsmobility 	totalTime 	32
scalar MyScenario.node[162].veinsmobility 	stopTime 	37
scalar MyScenario.node[162].veinsmobility 	minSpeed 	2.1215653204359
scalar MyScenario.node[162].veinsmobility 	maxSpeed 	13.771171036991
scalar MyScenario.node[162].veinsmobility 	totalDistance 	364.44656396505
scalar MyScenario.node[162].veinsmobility 	totalCO2Emission 	99.497660185464
scalar MyScenario.node[171].appl 	generatedWSMs 	0
scalar MyScenario.node[171].appl 	receivedWSMs 	0
scalar MyScenario.node[171].appl 	generatedBSMs 	0
scalar MyScenario.node[171].appl 	receivedBSMs 	0
scalar MyScenario.node[171].appl 	generatedWSAs 	0
scalar MyScenario.node[171].appl 	receivedWSAs 	0
scalar MyScenario.node[171].nic.phy80211p 	busyTime 	0.00015011764705882
scalar MyScenario.node[171].nic.mac1609_4 	ReceivedUnicastPackets 	0
scalar MyScenario.node[171].nic.mac1609_4 	ReceivedBroadcasts 	0
scalar MyScenario.node[171].nic.mac1609_4 	SentPackets 	0
scalar MyScenario.node[171].nic.mac1609_4 	SNIRLostPackets 	22
scalar MyScenario.node[171].nic.mac1609_4 	RXTXLostPackets 	0
scalar MyScenario.node[171].nic.mac1609_4 	TotalLostPackets 	22
scalar MyScenario.node[171].nic.mac1609_4 	DroppedPacketsInMac 	0
scalar MyScenario.node[171].nic.mac1609_4 	TooLittleTime 	0
scalar MyScenario.node[171].nic.mac1609_4 	TimesIntoBackoff 	0
scalar MyScenario.node[171].nic.mac1609_4 	SlotsBackoff 	0
scalar MyScenario.node[171].nic.mac1609_4 	NumInternalContention 	0
scalar MyScenario.node[171].nic.mac1609_4 	totalBusyTime 	0.00116
scalar MyScenario.node[171].veinsmobility 	startTime 	4
scalar MyScenario.node[171].veinsmobility 	totalTime 	33
scalar MyScenario.node[171].veinsmobility 	stopTime 	38
scalar MyScenario.node[171].veinsmobility 	minSpeed 	2.1469432171434
scalar MyScenario.node[171].veinsmobility 	maxSpeed 	13.892467690888
scalar MyScenario.node[171].veinsmobility 	totalDistance 	373.54405673266
scalar MyScenario.node[171].veinsmobility 	totalCO2Emission 	108.92248853154
scalar MyScenario.node[95].appl 	generatedWSMs 	0
scalar MyScenario.node[95].appl 	receivedWSMs 	0
scalar MyScenario.node[95].appl 	generatedBSMs 	0
scalar MyScenario.node[95].appl 	receivedBSMs 	0
scalar MyScenario.node[95].appl 	generatedWSAs 	0
scalar MyScenario.node[95].appl 	receivedWSAs 	0
scalar MyScenario.node[95].nic.phy80211p 	busyTime 	0
scalar MyScenario.node[95].nic.mac1609_4 	ReceivedUnicastPackets 	0
scalar MyScenario.node[95].nic.mac1609_4 	ReceivedBroadcasts 	0
scalar MyScenario.node[95].nic.mac1609_4 	SentPackets 	0
scalar MyScenario.node[95].nic.mac1609_4 	SNIRLostPackets 	0
scalar MyScenario.node[95].nic.mac1609_4 	RXTXLostPackets 	0
scalar MyScenario.node[95].nic.mac1609_4 	TotalLostPackets 	0
scalar MyScenario.node[95].nic.mac1609_4 	DroppedPacketsInMac 	0
scalar MyScenario.node[95].nic.mac1609_4 	TooLittleTime 	0
scalar MyScenario.node[95].nic.mac1609_4 	TimesIntoBackoff 	0
scalar MyScenario.node[95].nic.mac1609_4 	SlotsBackoff 	0
scalar MyScenario.node[95].nic.mac1609_4 	NumInternalContention 	0
scalar MyScenario.node[95].nic.mac1609_4 	totalBusyTime 	0
scalar MyScenario.node[95].veinsmobility 	startTime 	1
scalar MyScenario.node[95].veinsmobility 	totalTime 	39
scalar MyScenario.node[95].veinsmobility 	stopTime 	41
scalar MyScenario.node[95].veinsmobility 	minSpeed 	0.054942233630325
scalar MyScenario.node[95].veinsmobility 	maxSpeed 	13.899609371391
scalar MyScenario.node[95].veinsmobility 	totalDistance 	370.65384570644
scalar MyScenario.node[95].veinsmobility 	totalCO2Emission 	120.27055808881
scalar MyScenario.node[105].appl 	generatedWSMs 	0
scalar MyScenario.node[105].appl 	receivedWSMs 	0
scalar MyScenario.node[105].appl 	generatedBSMs 	0
scalar MyScenario.node[105].appl 	receivedBSMs 	0
scalar MyScenario.node[105].appl 	generatedWSAs 	0
scalar MyScenario.node[105].appl 	receivedWSAs 	0
scalar MyScenario.node[105].nic.phy80211p 	busyTime 	0
scalar MyScenario.node[105].nic.mac1609_4 	ReceivedUnicastPackets 	0
scalar MyScenario.node[105].nic.mac1609_4 	ReceivedBroadcasts 	0
scalar MyScenario.node[105].nic.mac1609_4 	SentPackets 	0
scalar MyScenario.node[105].nic.mac1609_4 	SNIRLostPackets 	0
scalar MyScenario.node[105].nic.mac1609_4 	RXTXLostPackets 	0
scalar MyScenario.node[105].nic.mac1609_4 	TotalLostPackets 	0
scalar MyScenario.node[105].nic.mac1609_4 	DroppedPacketsInMac 	0
scalar MyScenario.node[105].nic.mac1609_4 	TooLittleTime 	0
scalar MyScenario.node[105].nic.mac1609_4 	TimesIntoBackoff 	0
scalar MyScenario.node[105].nic.mac1609_4 	SlotsBackoff 	0
scalar MyScenario.node[105].nic.mac1609_4 	NumInternalContention 	0
scalar MyScenario.node[105].nic.mac1609_4 	totalBusyTime 	0
scalar MyScenario.node[105].veinsmobility 	startTime 	1
scalar MyScenario.node[105].veinsmobility 	totalTime 	39
scalar MyScenario.node[105].veinsmobility 	stopTime 	41
scalar MyScenario.node[105].veinsmobility 	minSpeed 	1.4263187174452
scalar MyScenario.node[105].veinsmobility 	maxSpeed 	13.843836436002
scalar MyScenario.node[105].veinsmobility 	totalDistance 	472.00872328173
scalar MyScenario.node[105].veinsmobility 	totalCO2Emission 	110.9240429075
scalar MyScenario.node[70].appl 	generatedWSMs 	1
scalar MyScenario.node[70].appl 	receivedWSMs 	6
scalar MyScenario.node[70].appl 	generatedBSMs 	0
scalar MyScenario.node[70].appl 	receivedBSMs 	0
scalar MyScenario.node[70].appl 	generatedWSAs 	0
scalar MyScenario.node[70].appl 	receivedWSAs 	0
scalar MyScenario.node[70].nic.phy80211p 	busyTime 	0.0001508
scalar MyScenario.node[70].nic.mac1609_4 	ReceivedUnicastPackets 	0
scalar MyScenario.node[70].nic.mac1609_4 	ReceivedBroadcasts 	6
scalar MyScenario.node[70].nic.mac1609_4 	SentPackets 	1
scalar MyScenario.node[70].nic.mac1609_4 	SNIRLostPackets 	20
scalar MyScenario.node[70].nic.mac1609_4 	RXTXLostPackets 	1
scalar MyScenario.node[70].nic.mac1609_4 	TotalLostPackets 	21
scalar MyScenario.node[70].nic.mac1609_4 	DroppedPacketsInMac 	0
scalar MyScenario.node[70].nic.mac1609_4 	TooLittleTime 	0
scalar MyScenario.node[70].nic.mac1609_4 	TimesIntoBackoff 	1
scalar MyScenario.node[70].nic.mac1609_4 	SlotsBackoff 	1
scalar MyScenario.node[70].nic.mac1609_4 	NumInternalContention 	0
scalar MyScenario.node[70].nic.mac1609_4 	totalBusyTime 	0.002321
scalar MyScenario.node[70].veinsmobility 	startTime 	1
scalar MyScenario.node[70].veinsmobility 	totalTime 	39
scalar MyScenario.node[70].veinsmobility 	stopTime 	41
scalar MyScenario.node[70].veinsmobility 	minSpeed 	2.1849930824712
scalar MyScenario.node[70].veinsmobility 	maxSpeed 	13.879928229144
scalar MyScenario.node[70].veinsmobility 	totalDistance 	477.87154935694
scalar MyScenario.node[70].veinsmobility 	totalCO2Emission 	101.97047000635
scalar MyScenario.node[124].appl 	generatedWSMs 	0
scalar MyScenario.node[124].appl 	receivedWSMs 	0
scalar MyScenario.node[124].appl 	generatedBSMs 	0
scalar MyScenario.node[124].appl 	receivedBSMs 	0
scalar MyScenario.node[124].appl 	generatedWSAs 	0
scalar MyScenario.node[124].appl 	receivedWSAs 	0
scalar MyScenario.node[124].nic.phy80211p 	busyTime 	0
scalar MyScenario.node[124].nic.mac1609_4 	ReceivedUnicastPackets 	0
scalar MyScenario.node[124].nic.mac1609_4 	ReceivedBroadcasts 	0
scalar MyScenario.node[124].nic.mac1609_4 	SentPackets 	0
scalar MyScenario.node[124].nic.mac1609_4 	SNIRLostPackets 	0
scalar MyScenario.node[124].nic.mac1609_4 	RXTXLostPackets 	0
scalar MyScenario.node[124].nic.mac1609_4 	TotalLostPackets 	0
scalar MyScenario.node[124].nic.mac1609_4 	DroppedPacketsInMac 	0
scalar MyScenario.node[124].nic.mac1609_4 	TooLittleTime 	0
scalar MyScenario.node[124].nic.mac1609_4 	TimesIntoBackoff 	0
scalar MyScenario.node[124].nic.mac1609_4 	SlotsBackoff 	0
scalar MyScenario.node[124].nic.mac1609_4 	NumInternalContention 	0
scalar MyScenario.node[124].nic.mac1609_4 	totalBusyTime 	0
scalar MyScenario.node[124].veinsmobility 	startTime 	1
scalar MyScenario.node[124].veinsmobility 	totalTime 	40
scalar MyScenario.node[124].veinsmobility 	stopTime 	42
scalar MyScenario.node[124].veinsmobility 	minSpeed 	0.012379498916874
scalar MyScenario.node[124].veinsmobility 	maxSpeed 	13.690439762129
scalar MyScenario.node[124].veinsmobility 	totalDistance 	377.69575740366
scalar MyScenario.node[124].veinsmobility 	totalCO2Emission 	129.41678324207
scalar MyScenario.node[68].appl 	generatedWSMs 	0
scalar MyScenario.node[68].appl 	receivedWSMs 	0
scalar MyScenario.node[68].appl 	generatedBSMs 	0
scalar MyScenario.node[68].appl 	receivedBSMs 	0
scalar MyScenario.node[68].appl 	generatedWSAs 	0
scalar MyScenario.node[68].appl 	receivedWSAs 	0
scalar MyScenario.node[68].nic.phy80211p 	busyTime 	0
scalar MyScenario.node[68].nic.mac1609_4 	ReceivedUnicastPackets 	0
scalar MyScenario.node[68].nic.mac1609_4 	ReceivedBroadcasts 	0
scalar MyScenario.node[68].nic.mac1609_4 	SentPackets 	0
scalar MyScenario.node[68].nic.mac1609_4 	SNIRLostPackets 	0
scalar MyScenario.node[68].nic.mac1609_4 	RXTXLostPackets 	0
scalar MyScenario.node[68].nic.mac1609_4 	TotalLostPackets 	0
scalar MyScenario.node[68].nic.mac1609_4 	DroppedPacketsInMac 	0
scalar MyScenario.node[68].nic.mac1609_4 	TooLittleTime 	0
scalar MyScenario.node[68].nic.mac1609_4 	TimesIntoBackoff 	0
scalar MyScenario.node[68].nic.mac1609_4 	SlotsBackoff 	0
scalar MyScenario.node[68].nic.mac1609_4 	NumInternalContention 	0
scalar MyScenario.node[68].nic.mac1609_4 	totalBusyTime 	0
scalar MyScenario.node[68].veinsmobility 	startTime 	1
scalar MyScenario.node[68].veinsmobility 	totalTime 	41
scalar MyScenario.node[68].veinsmobility 	stopTime 	43
scalar MyScenario.node[68].veinsmobility 	minSpeed 	0.0011301093388773
scalar MyScenario.node[68].veinsmobility 	maxSpeed 	13.848378570401
scalar MyScenario.node[68].veinsmobility 	totalDistance 	378.06447086567
scalar MyScenario.node[68].veinsmobility 	totalCO2Emission 	140.27590129933
scalar MyScenario.node[74].appl 	generatedWSMs 	0
scalar MyScenario.node[74].appl 	receivedWSMs 	0
scalar MyScenario.node[74].appl 	generatedBSMs 	0
scalar MyScenario.node[74].appl 	receivedBSMs 	0
scalar MyScenario.node[74].appl 	generatedWSAs 	0
scalar MyScenario.node[74].appl 	receivedWSAs 	0
scalar MyScenario.node[74].nic.phy80211p 	busyTime 	0
scalar MyScenario.node[74].nic.mac1609_4 	ReceivedUnicastPackets 	0
scalar MyScenario.node[74].nic.mac1609_4 	ReceivedBroadcasts 	0
scalar MyScenario.node[74].nic.mac1609_4 	SentPackets 	0
scalar MyScenario.node[74].nic.mac1609_4 	SNIRLostPackets 	0
scalar MyScenario.node[74].nic.mac1609_4 	RXTXLostPackets 	0
scalar MyScenario.node[74].nic.mac1609_4 	TotalLostPackets 	0
scalar MyScenario.node[74].nic.mac1609_4 	DroppedPacketsInMac 	0
scalar MyScenario.node[74].nic.mac1609_4 	TooLittleTime 	0
scalar MyScenario.node[74].nic.mac1609_4 	TimesIntoBackoff 	0
scalar MyScenario.node[74].nic.mac1609_4 	SlotsBackoff 	0
scalar MyScenario.node[74].nic.mac1609_4 	NumInternalContention 	0
scalar MyScenario.node[74].nic.mac1609_4 	totalBusyTime 	0
scalar MyScenario.node[74].veinsmobility 	startTime 	1
scalar MyScenario.node[74].veinsmobility 	totalTime 	41
scalar MyScenario.node[74].veinsmobility 	stopTime 	43
scalar MyScenario.node[74].veinsmobility 	minSpeed 	2.1905950624263
scalar MyScenario.node[74].veinsmobility 	maxSpeed 	13.81668453489
scalar MyScenario.node[74].veinsmobility 	totalDistance 	458.42534512584
scalar MyScenario.node[74].veinsmobility 	totalCO2Emission 	140.55038787325
scalar MyScenario.node[106].appl 	generatedWSMs 	0
scalar MyScenario.node[106].appl 	receivedWSMs 	0
scalar MyScenario.node[106].appl 	generatedBSMs 	0
scalar MyScenario.node[106].appl 	receivedBSMs 	0
scalar MyScenario.node[106].appl 	generatedWSAs 	0
scalar MyScenario.node[106].appl 	receivedWSAs 	0
scalar MyScenario.node[106].nic.phy80211p 	busyTime 	0
scalar MyScenario.node[106].nic.mac1609_4 	ReceivedUnicastPackets 	0
scalar MyScenario.node[106].nic.mac1609_4 	ReceivedBroadcasts 	0
scalar MyScenario.node[106].nic.mac1609_4 	SentPackets 	0
scalar MyScenario.node[106].nic.mac1609_4 	SNIRLostPackets 	0
scalar MyScenario.node[106].nic.mac1609_4 	RXTXLostPackets 	0
scalar MyScenario.node[106].nic.mac1609_4 	TotalLostPackets 	0
scalar MyScenario.node[106].nic.mac1609_4 	DroppedPacketsInMac 	0
scalar MyScenario.node[106].nic.mac1609_4 	TooLittleTime 	0
scalar MyScenario.node[106].nic.mac1609_4 	TimesIntoBackoff 	0
scalar MyScenario.node[106].nic.mac1609_4 	SlotsBackoff 	0
scalar MyScenario.node[106].nic.mac1609_4 	NumInternalContention 	0
scalar MyScenario.node[106].nic.mac1609_4 	totalBusyTime 	0
scalar MyScenario.node[106].veinsmobility 	startTime 	1
scalar MyScenario.node[106].veinsmobility 	totalTime 	41
scalar MyScenario.node[106].veinsmobility 	stopTime 	43
scalar MyScenario.node[106].veinsmobility 	minSpeed 	2.0256168721709
scalar MyScenario.node[106].veinsmobility 	maxSpeed 	13.776845540549
scalar MyScenario.node[106].veinsmobility 	totalDistance 	460.36558563078
scalar MyScenario.node[106].veinsmobility 	totalCO2Emission 	137.55937424319
scalar MyScenario.node[60].appl 	generatedWSMs 	0
scalar MyScenario.node[60].appl 	receivedWSMs 	0
scalar MyScenario.node[60].appl 	generatedBSMs 	0
scalar MyScenario.node[60].appl 	receivedBSMs 	0
scalar MyScenario.node[60].appl 	generatedWSAs 	0
scalar MyScenario.node[60].appl 	receivedWSAs 	0
scalar MyScenario.node[60].nic.phy80211p 	busyTime 	0
scalar MyScenario.node[60].nic.mac1609_4 	ReceivedUnicastPackets 	0
scalar MyScenario.node[60].nic.mac1609_4 	ReceivedBroadcasts 	0
scalar MyScenario.node[60].nic.mac1609_4 	SentPackets 	0
scalar MyScenario.node[60].nic.mac1609_4 	SNIRLostPackets 	0
scalar MyScenario.node[60].nic.mac1609_4 	RXTXLostPackets 	0
scalar MyScenario.node[60].nic.mac1609_4 	TotalLostPackets 	0
scalar MyScenario.node[60].nic.mac1609_4 	DroppedPacketsInMac 	0
scalar MyScenario.node[60].nic.mac1609_4 	TooLittleTime 	0
scalar MyScenario.node[60].nic.mac1609_4 	TimesIntoBackoff 	0
scalar MyScenario.node[60].nic.mac1609_4 	SlotsBackoff 	0
scalar MyScenario.node[60].nic.mac1609_4 	NumInternalContention 	0
scalar MyScenario.node[60].nic.mac1609_4 	totalBusyTime 	0
scalar MyScenario.node[60].veinsmobility 	startTime 	1
scalar MyScenario.node[60].veinsmobility 	totalTime 	42
scalar MyScenario.node[60].veinsmobility 	stopTime 	44
scalar MyScenario.node[60].veinsmobility 	minSpeed 	0.0044295127367464
scalar MyScenario.node[60].veinsmobility 	maxSpeed 	13.886440548068
scalar MyScenario.node[60].veinsmobility 	totalDistance 	379.06025298809
scalar MyScenario.node[60].veinsmobility 	totalCO2Emission 	142.37241828834
scalar MyScenario.node[101].appl 	generatedWSMs 	1
scalar MyScenario.node[101].appl 	receivedWSMs 	19
scalar MyScenario.node[101].appl 	generatedBSMs 	0
scalar MyScenario.node[101].appl 	receivedBSMs 	0
scalar MyScenario.node[101].appl 	generatedWSAs 	0
scalar MyScenario.node[101].appl 	receivedWSAs 	0
scalar MyScenario.node[101].nic.phy80211p 	busyTime 	0.00023727272727273
scalar MyScenario.node[101].nic.mac1609_4 	ReceivedUnicastPackets 	0
scalar MyScenario.node[101].nic.mac1609_4 	ReceivedBroadcasts 	19
scalar MyScenario.node[101].nic.mac1609_4 	SentPackets 	1
scalar MyScenario.node[101].nic.mac1609_4 	SNIRLostPackets 	26
scalar MyScenario.node[101].nic.mac1609_4 	RXTXLostPackets 	5
scalar MyScenario.node[101].nic.mac1609_4 	TotalLostPackets 	31
scalar MyScenario.node[101].nic.mac1609_4 	DroppedPacketsInMac 	0
scalar MyScenario.node[101].nic.mac1609_4 	TooLittleTime 	0
scalar MyScenario.node[101].nic.mac1609_4 	TimesIntoBackoff 	1
scalar MyScenario.node[101].nic.mac1609_4 	SlotsBackoff 	1
scalar MyScenario.node[101].nic.mac1609_4 	NumInternalContention 	0
scalar MyScenario.node[101].nic.mac1609_4 	totalBusyTime 	0.006497
scalar MyScenario.node[101].veinsmobility 	startTime 	1
scalar MyScenario.node[101].veinsmobility 	totalTime 	43
scalar MyScenario.node[101].veinsmobility 	stopTime 	45
scalar MyScenario.node[101].veinsmobility 	minSpeed 	1.5876525437925
scalar MyScenario.node[101].veinsmobility 	maxSpeed 	13.81260257645
scalar MyScenario.node[101].veinsmobility 	totalDistance 	465.91731991976
scalar MyScenario.node[101].veinsmobility 	totalCO2Emission 	142.17430516348
scalar MyScenario.node[25].appl 	generatedWSMs 	0
scalar MyScenario.node[25].appl 	receivedWSMs 	0
scalar MyScenario.node[25].appl 	generatedBSMs 	0
scalar MyScenario.node[25].appl 	receivedBSMs 	0
scalar MyScenario.node[25].appl 	generatedWSAs 	0
scalar MyScenario.node[25].appl 	receivedWSAs 	0
scalar MyScenario.node[25].nic.phy80211p 	busyTime 	0
scalar MyScenario.node[25].nic.mac1609_4 	ReceivedUnicastPackets 	0
scalar MyScenario.node[25].nic.mac1609_4 	ReceivedBroadcasts 	0
scalar MyScenario.node[25].nic.mac1609_4 	SentPackets 	0
scalar MyScenario.node[25].nic.mac1609_4 	SNIRLostPackets 	0
scalar MyScenario.node[25].nic.mac1609_4 	RXTXLostPackets 	0
scalar MyScenario.node[25].nic.mac1609_4 	TotalLostPackets 	0
scalar MyScenario.node[25].nic.mac1609_4 	DroppedPacketsInMac 	0
scalar MyScenario.node[25].nic.mac1609_4 	TooLittleTime 	0
scalar MyScenario.node[25].nic.mac1609_4 	TimesIntoBackoff 	0
scalar MyScenario.node[25].nic.mac1609_4 	SlotsBackoff 	0
scalar MyScenario.node[25].nic.mac1609_4 	NumInternalContention 	0
scalar MyScenario.node[25].nic.mac1609_4 	totalBusyTime 	0
scalar MyScenario.node[25].veinsmobility 	startTime 	1
scalar MyScenario.node[25].veinsmobility 	totalTime 	43
scalar MyScenario.node[25].veinsmobility 	stopTime 	45
scalar MyScenario.node[25].veinsmobility 	minSpeed 	1.7858267050469
scalar MyScenario.node[25].veinsmobility 	maxSpeed 	13.820690728631
scalar MyScenario.node[25].veinsmobility 	totalDistance 	465.42599079291
scalar MyScenario.node[25].veinsmobility 	totalCO2Emission 	152.90273541025
scalar MyScenario.node[14].appl 	generatedWSMs 	0
scalar MyScenario.node[14].appl 	receivedWSMs 	0
scalar MyScenario.node[14].appl 	generatedBSMs 	0
scalar MyScenario.node[14].appl 	receivedBSMs 	0
scalar MyScenario.node[14].appl 	generatedWSAs 	0
scalar MyScenario.node[14].appl 	receivedWSAs 	0
scalar MyScenario.node[14].nic.phy80211p 	busyTime 	0
scalar MyScenario.node[14].nic.mac1609_4 	ReceivedUnicastPackets 	0
scalar MyScenario.node[14].nic.mac1609_4 	ReceivedBroadcasts 	0
scalar MyScenario.node[14].nic.mac1609_4 	SentPackets 	0
scalar MyScenario.node[14].nic.mac1609_4 	SNIRLostPackets 	0
scalar MyScenario.node[14].nic.mac1609_4 	RXTXLostPackets 	0
scalar MyScenario.node[14].nic.mac1609_4 	TotalLostPackets 	0
scalar MyScenario.node[14].nic.mac1609_4 	DroppedPacketsInMac 	0
scalar MyScenario.node[14].nic.mac1609_4 	TooLittleTime 	0
scalar MyScenario.node[14].nic.mac1609_4 	TimesIntoBackoff 	0
scalar MyScenario.node[14].nic.mac1609_4 	SlotsBackoff 	0
scalar MyScenario.node[14].nic.mac1609_4 	NumInternalContention 	0
scalar MyScenario.node[14].nic.mac1609_4 	totalBusyTime 	0
scalar MyScenario.node[14].veinsmobility 	startTime 	1
scalar MyScenario.node[14].veinsmobility 	totalTime 	43
scalar MyScenario.node[14].veinsmobility 	stopTime 	45
scalar MyScenario.node[14].veinsmobility 	minSpeed 	2.4965029826621
scalar MyScenario.node[14].veinsmobility 	maxSpeed 	13.752362590632
scalar MyScenario.node[14].veinsmobility 	totalDistance 	484.46543061481
scalar MyScenario.node[14].veinsmobility 	totalCO2Emission 	133.35144270757
scalar MyScenario.node[185].appl 	generatedWSMs 	1
scalar MyScenario.node[185].appl 	receivedWSMs 	6
scalar MyScenario.node[185].appl 	generatedBSMs 	0
scalar MyScenario.node[185].appl 	receivedBSMs 	0
scalar MyScenario.node[185].appl 	generatedWSAs 	0
scalar MyScenario.node[185].appl 	receivedWSAs 	0
scalar MyScenario.node[185].nic.phy80211p 	busyTime 	0.00016571428571429
scalar MyScenario.node[185].nic.mac1609_4 	ReceivedUnicastPackets 	0
scalar MyScenario.node[185].nic.mac1609_4 	ReceivedBroadcasts 	6
scalar MyScenario.node[185].nic.mac1609_4 	SentPackets 	1
scalar MyScenario.node[185].nic.mac1609_4 	SNIRLostPackets 	24
scalar MyScenario.node[185].nic.mac1609_4 	RXTXLostPackets 	7
scalar MyScenario.node[185].nic.mac1609_4 	TotalLostPackets 	31
scalar MyScenario.node[185].nic.mac1609_4 	DroppedPacketsInMac 	0
scalar MyScenario.node[185].nic.mac1609_4 	TooLittleTime 	0
scalar MyScenario.node[185].nic.mac1609_4 	TimesIntoBackoff 	1
scalar MyScenario.node[185].nic.mac1609_4 	SlotsBackoff 	0
scalar MyScenario.node[185].nic.mac1609_4 	NumInternalContention 	0
scalar MyScenario.node[185].nic.mac1609_4 	totalBusyTime 	0.002785000168
scalar MyScenario.node[185].veinsmobility 	startTime 	4
scalar MyScenario.node[185].veinsmobility 	totalTime 	41
scalar MyScenario.node[185].veinsmobility 	stopTime 	46
scalar MyScenario.node[185].veinsmobility 	minSpeed 	1.7152533140499
scalar MyScenario.node[185].veinsmobility 	maxSpeed 	13.838693062006
scalar MyScenario.node[185].veinsmobility 	totalDistance 	468.9953510091
scalar MyScenario.node[185].veinsmobility 	totalCO2Emission 	129.00293236522
scalar MyScenario.node[29].appl 	generatedWSMs 	0
scalar MyScenario.node[29].appl 	receivedWSMs 	0
scalar MyScenario.node[29].appl 	generatedBSMs 	0
scalar MyScenario.node[29].appl 	receivedBSMs 	0
scalar MyScenario.node[29].appl 	generatedWSAs 	0
scalar MyScenario.node[29].appl 	receivedWSAs 	0
scalar MyScenario.node[29].nic.phy80211p 	busyTime 	2.0622222222222e-05
scalar MyScenario.node[29].nic.mac1609_4 	ReceivedUnicastPackets 	0
scalar MyScenario.node[29].nic.mac1609_4 	ReceivedBroadcasts 	0
scalar MyScenario.node[29].nic.mac1609_4 	SentPackets 	0
scalar MyScenario.node[29].nic.mac1609_4 	SNIRLostPackets 	4
scalar MyScenario.node[29].nic.mac1609_4 	RXTXLostPackets 	0
scalar MyScenario.node[29].nic.mac1609_4 	TotalLostPackets 	4
scalar MyScenario.node[29].nic.mac1609_4 	DroppedPacketsInMac 	0
scalar MyScenario.node[29].nic.mac1609_4 	TooLittleTime 	0
scalar MyScenario.node[29].nic.mac1609_4 	TimesIntoBackoff 	0
scalar MyScenario.node[29].nic.mac1609_4 	SlotsBackoff 	0
scalar MyScenario.node[29].nic.mac1609_4 	NumInternalContention 	0
scalar MyScenario.node[29].nic.mac1609_4 	totalBusyTime 	0.000464
scalar MyScenario.node[29].veinsmobility 	startTime 	1
scalar MyScenario.node[29].veinsmobility 	totalTime 	44
scalar MyScenario.node[29].veinsmobility 	stopTime 	46
scalar MyScenario.node[29].veinsmobility 	minSpeed 	0.58660836912101
scalar MyScenario.node[29].veinsmobility 	maxSpeed 	13.826127002575
scalar MyScenario.node[29].veinsmobility 	totalDistance 	463.00756519063
scalar MyScenario.node[29].veinsmobility 	totalCO2Emission 	149.29648958116
scalar MyScenario.node[93].appl 	generatedWSMs 	0
scalar MyScenario.node[93].appl 	receivedWSMs 	0
scalar MyScenario.node[93].appl 	generatedBSMs 	0
scalar MyScenario.node[93].appl 	receivedBSMs 	0
scalar MyScenario.node[93].appl 	generatedWSAs 	0
scalar MyScenario.node[93].appl 	receivedWSAs 	0
scalar MyScenario.node[93].nic.phy80211p 	busyTime 	0
scalar MyScenario.node[93].nic.mac1609_4 	ReceivedUnicastPackets 	0
scalar MyScenario.node[93].nic.mac1609_4 	ReceivedBroadcasts 	0
scalar MyScenario.node[93].nic.mac1609_4 	SentPackets 	0
scalar MyScenario.node[93].nic.mac1609_4 	SNIRLostPackets 	0
scalar MyScenario.node[93].nic.mac1609_4 	RXTXLostPackets 	0
scalar MyScenario.node[93].nic.mac1609_4 	TotalLostPackets 	0
scalar MyScenario.node[93].nic.mac1609_4 	DroppedPacketsInMac 	0
scalar MyScenario.node[93].nic.mac1609_4 	TooLittleTime 	0
scalar MyScenario.node[93].nic.mac1609_4 	TimesIntoBackoff 	0
scalar MyScenario.node[93].nic.mac1609_4 	SlotsBackoff 	0
scalar MyScenario.node[93].nic.mac1609_4 	NumInternalContention 	0
scalar MyScenario.node[93].nic.mac1609_4 	totalBusyTime 	0
scalar MyScenario.node[93].veinsmobility 	startTime 	1
scalar MyScenario.node[93].veinsmobility 	totalTime 	44
scalar MyScenario.node[93].veinsmobility 	stopTime 	46
scalar MyScenario.node[93].veinsmobility 	minSpeed 	0.48242045188593
scalar MyScenario.node[93].veinsmobility 	maxSpeed 	13.822191926185
scalar MyScenario.node[93].veinsmobility 	totalDistance 	477.77367353636
scalar MyScenario.node[93].veinsmobility 	totalCO2Emission 	134.25852705058
scalar MyScenario.node[102].appl 	generatedWSMs 	1
scalar MyScenario.node[102].appl 	receivedWSMs 	8
scalar MyScenario.node[102].appl 	generatedBSMs 	0
scalar MyScenario.node[102].appl 	receivedBSMs 	0
scalar MyScenario.node[102].appl 	generatedWSAs 	0
scalar MyScenario.node[102].appl 	receivedWSAs 	0
scalar MyScenario.node[102].nic.phy80211p 	busyTime 	8.0695652173913e-05
scalar MyScenario.node[102].nic.mac1609_4 	ReceivedUnicastPackets 	0
scalar MyScenario.node[102].nic.mac1609_4 	ReceivedBroadcasts 	8
scalar MyScenario.node[102].nic.mac1609_4 	SentPackets 	1
scalar MyScenario.node[102].nic.mac1609_4 	SNIRLostPackets 	8
scalar MyScenario.node[102].nic.mac1609_4 	RXTXLostPackets 	1
scalar MyScenario.node[102].nic.mac1609_4 	TotalLostPackets 	9
scalar MyScenario.node[102].nic.mac1609_4 	DroppedPacketsInMac 	0
scalar MyScenario.node[102].nic.mac1609_4 	TooLittleTime 	0
scalar MyScenario.node[102].nic.mac1609_4 	TimesIntoBackoff 	1
scalar MyScenario.node[102].nic.mac1609_4 	SlotsBackoff 	2
scalar MyScenario.node[102].nic.mac1609_4 	NumInternalContention 	0
scalar MyScenario.node[102].nic.mac1609_4 	totalBusyTime 	0.002785
scalar MyScenario.node[102].veinsmobility 	startTime 	1
scalar MyScenario.node[102].veinsmobility 	totalTime 	45
scalar MyScenario.node[102].veinsmobility 	stopTime 	47
scalar MyScenario.node[102].veinsmobility 	minSpeed 	0.02654700674655
scalar MyScenario.node[102].veinsmobility 	maxSpeed 	13.786422020034
scalar MyScenario.node[102].veinsmobility 	totalDistance 	473.90679771226
scalar MyScenario.node[102].veinsmobility 	totalCO2Emission 	134.52732411046
scalar MyScenario.node[69].appl 	generatedWSMs 	1
scalar MyScenario.node[69].appl 	receivedWSMs 	1
scalar MyScenario.node[69].appl 	generatedBSMs 	0
scalar MyScenario.node[69].appl 	receivedBSMs 	0
scalar MyScenario.node[69].appl 	generatedWSAs 	0
scalar MyScenario.node[69].appl 	receivedWSAs 	0
scalar MyScenario.node[69].nic.phy80211p 	busyTime 	2.0173913043478e-05
scalar MyScenario.node[69].nic.mac1609_4 	ReceivedUnicastPackets 	0
scalar MyScenario.node[69].nic.mac1609_4 	ReceivedBroadcasts 	1
scalar MyScenario.node[69].nic.mac1609_4 	SentPackets 	1
scalar MyScenario.node[69].nic.mac1609_4 	SNIRLostPackets 	3
scalar MyScenario.node[69].nic.mac1609_4 	RXTXLostPackets 	0
scalar MyScenario.node[69].nic.mac1609_4 	TotalLostPackets 	3
scalar MyScenario.node[69].nic.mac1609_4 	DroppedPacketsInMac 	0
scalar MyScenario.node[69].nic.mac1609_4 	TooLittleTime 	0
scalar MyScenario.node[69].nic.mac1609_4 	TimesIntoBackoff 	1
scalar MyScenario.node[69].nic.mac1609_4 	SlotsBackoff 	3
scalar MyScenario.node[69].nic.mac1609_4 	NumInternalContention 	0
scalar MyScenario.node[69].nic.mac1609_4 	totalBusyTime 	0.000697
scalar MyScenario.node[69].veinsmobility 	startTime 	1
scalar MyScenario.node[69].veinsmobility 	totalTime 	45
scalar MyScenario.node[69].veinsmobility 	stopTime 	47
scalar MyScenario.node[69].veinsmobility 	minSpeed 	1.5940206127707
scalar MyScenario.node[69].veinsmobility 	maxSpeed 	13.882407488464
scalar MyScenario.node[69].veinsmobility 	totalDistance 	475.28540869484
scalar MyScenario.node[69].veinsmobility 	totalCO2Emission 	163.83045460188
scalar MyScenario.node[129].appl 	generatedWSMs 	0
scalar MyScenario.node[129].appl 	receivedWSMs 	0
scalar MyScenario.node[129].appl 	generatedBSMs 	0
scalar MyScenario.node[129].appl 	receivedBSMs 	0
scalar MyScenario.node[129].appl 	generatedWSAs 	0
scalar MyScenario.node[129].appl 	receivedWSAs 	0
scalar MyScenario.node[129].nic.phy80211p 	busyTime 	0
scalar MyScenario.node[129].nic.mac1609_4 	ReceivedUnicastPackets 	0
scalar MyScenario.node[129].nic.mac1609_4 	ReceivedBroadcasts 	0
scalar MyScenario.node[129].nic.mac1609_4 	SentPackets 	0
scalar MyScenario.node[129].nic.mac1609_4 	SNIRLostPackets 	0
scalar MyScenario.node[129].nic.mac1609_4 	RXTXLostPackets 	0
scalar MyScenario.node[129].nic.mac1609_4 	TotalLostPackets 	0
scalar MyScenario.node[129].nic.mac1609_4 	DroppedPacketsInMac 	0
scalar MyScenario.node[129].nic.mac1609_4 	TooLittleTime 	0
scalar MyScenario.node[129].nic.mac1609_4 	TimesIntoBackoff 	0
scalar MyScenario.node[129].nic.mac1609_4 	SlotsBackoff 	0
scalar MyScenario.node[129].nic.mac1609_4 	NumInternalContention 	0
scalar MyScenario.node[129].nic.mac1609_4 	totalBusyTime 	0
scalar MyScenario.node[129].veinsmobility 	startTime 	1
scalar MyScenario.node[129].veinsmobility 	totalTime 	46
scalar MyScenario.node[129].veinsmobility 	stopTime 	48
scalar MyScenario.node[129].veinsmobility 	minSpeed 	0.90098392257248
scalar MyScenario.node[129].veinsmobility 	maxSpeed 	13.881733471924
scalar MyScenario.node[129].veinsmobility 	totalDistance 	383.36310228299
scalar MyScenario.node[129].veinsmobility 	totalCO2Emission 	153.84539617878
scalar MyScenario.node[51].appl 	generatedWSMs 	0
scalar MyScenario.node[51].appl 	receivedWSMs 	0
scalar MyScenario.node[51].appl 	generatedBSMs 	0
scalar MyScenario.node[51].appl 	receivedBSMs 	0
scalar MyScenario.node[51].appl 	generatedWSAs 	0
scalar MyScenario.node[51].appl 	receivedWSAs 	0
scalar MyScenario.node[51].nic.phy80211p 	busyTime 	0
scalar MyScenario.node[51].nic.mac1609_4 	ReceivedUnicastPackets 	0
scalar MyScenario.node[51].nic.mac1609_4 	ReceivedBroadcasts 	0
scalar MyScenario.node[51].nic.mac1609_4 	SentPackets 	0
scalar MyScenario.node[51].nic.mac1609_4 	SNIRLostPackets 	0
scalar MyScenario.node[51].nic.mac1609_4 	RXTXLostPackets 	0
scalar MyScenario.node[51].nic.mac1609_4 	TotalLostPackets 	0
scalar MyScenario.node[51].nic.mac1609_4 	DroppedPacketsInMac 	0
scalar MyScenario.node[51].nic.mac1609_4 	TooLittleTime 	0
scalar MyScenario.node[51].nic.mac1609_4 	TimesIntoBackoff 	0
scalar MyScenario.node[51].nic.mac1609_4 	SlotsBackoff 	0
scalar MyScenario.node[51].nic.mac1609_4 	NumInternalContention 	0
scalar MyScenario.node[51].nic.mac1609_4 	totalBusyTime 	0
scalar MyScenario.node[51].veinsmobility 	startTime 	1
scalar MyScenario.node[51].veinsmobility 	totalTime 	46
scalar MyScenario.node[51].veinsmobility 	stopTime 	48
scalar MyScenario.node[51].veinsmobility 	minSpeed 	0.071006129274257
scalar MyScenario.node[51].veinsmobility 	maxSpeed 	13.755044661486
scalar MyScenario.node[51].veinsmobility 	totalDistance 	463.343945929
scalar MyScenario.node[51].veinsmobility 	totalCO2Emission 	141.93812589722
scalar MyScenario.node[203].appl 	generatedWSMs 	0
scalar MyScenario.node[203].appl 	receivedWSMs 	0
scalar MyScenario.node[203].appl 	generatedBSMs 	0
scalar MyScenario.node[203].appl 	receivedBSMs 	0
scalar MyScenario.node[203].appl 	generatedWSAs 	0
scalar MyScenario.node[203].appl 	receivedWSAs 	0
scalar MyScenario.node[203].nic.phy80211p 	busyTime 	3.2222222222222e-05
scalar MyScenario.node[203].nic.mac1609_4 	ReceivedUnicastPackets 	0
scalar MyScenario.node[203].nic.mac1609_4 	ReceivedBroadcasts 	0
scalar MyScenario.node[203].nic.mac1609_4 	SentPackets 	0
scalar MyScenario.node[203].nic.mac1609_4 	SNIRLostPackets 	5
scalar MyScenario.node[203].nic.mac1609_4 	RXTXLostPackets 	0
scalar MyScenario.node[203].nic.mac1609_4 	TotalLostPackets 	5
scalar MyScenario.node[203].nic.mac1609_4 	DroppedPacketsInMac 	0
scalar MyScenario.node[203].nic.mac1609_4 	TooLittleTime 	0
scalar MyScenario.node[203].nic.mac1609_4 	TimesIntoBackoff 	0
scalar MyScenario.node[203].nic.mac1609_4 	SlotsBackoff 	0
scalar MyScenario.node[203].nic.mac1609_4 	NumInternalContention 	0
scalar MyScenario.node[203].nic.mac1609_4 	totalBusyTime 	0.000464
scalar MyScenario.node[203].veinsmobility 	startTime 	12
scalar MyScenario.node[203].veinsmobility 	totalTime 	35
scalar MyScenario.node[203].veinsmobility 	stopTime 	48
scalar MyScenario.node[203].veinsmobility 	minSpeed 	4.7790788895453
scalar MyScenario.node[203].veinsmobility 	maxSpeed 	13.878111033235
scalar MyScenario.node[203].veinsmobility 	totalDistance 	433.47106398603
scalar MyScenario.node[203].veinsmobility 	totalCO2Emission 	92.254963587958
scalar MyScenario.node[57].appl 	generatedWSMs 	0
scalar MyScenario.node[57].appl 	receivedWSMs 	0
scalar MyScenario.node[57].appl 	generatedBSMs 	0
scalar MyScenario.node[57].appl 	receivedBSMs 	0
scalar MyScenario.node[57].appl 	generatedWSAs 	0
scalar MyScenario.node[57].appl 	receivedWSAs 	0
scalar MyScenario.node[57].nic.phy80211p 	busyTime 	0
scalar MyScenario.node[57].nic.mac1609_4 	ReceivedUnicastPackets 	0
scalar MyScenario.node[57].nic.mac1609_4 	ReceivedBroadcasts 	0
scalar MyScenario.node[57].nic.mac1609_4 	SentPackets 	0
scalar MyScenario.node[57].nic.mac1609_4 	SNIRLostPackets 	0
scalar MyScenario.node[57].nic.mac1609_4 	RXTXLostPackets 	0
scalar MyScenario.node[57].nic.mac1609_4 	TotalLostPackets 	0
scalar MyScenario.node[57].nic.mac1609_4 	DroppedPacketsInMac 	0
scalar MyScenario.node[57].nic.mac1609_4 	TooLittleTime 	0
scalar MyScenario.node[57].nic.mac1609_4 	TimesIntoBackoff 	0
scalar MyScenario.node[57].nic.mac1609_4 	SlotsBackoff 	0
scalar MyScenario.node[57].nic.mac1609_4 	NumInternalContention 	0
scalar MyScenario.node[57].nic.mac1609_4 	totalBusyTime 	0
scalar MyScenario.node[57].veinsmobility 	startTime 	1
scalar MyScenario.node[57].veinsmobility 	totalTime 	46
scalar MyScenario.node[57].veinsmobility 	stopTime 	48
scalar MyScenario.node[57].veinsmobility 	minSpeed 	2.4509565595537
scalar MyScenario.node[57].veinsmobility 	maxSpeed 	13.891840336681
scalar MyScenario.node[57].veinsmobility 	totalDistance 	573.81184788758
scalar MyScenario.node[57].veinsmobility 	totalCO2Emission 	124.19904775603
scalar MyScenario.node[23].appl 	generatedWSMs 	1
scalar MyScenario.node[23].appl 	receivedWSMs 	3
scalar MyScenario.node[23].appl 	generatedBSMs 	0
scalar MyScenario.node[23].appl 	receivedBSMs 	0
scalar MyScenario.node[23].appl 	generatedWSAs 	0
scalar MyScenario.node[23].appl 	receivedWSAs 	0
scalar MyScenario.node[23].nic.phy80211p 	busyTime 	9.6666666666667e-05
scalar MyScenario.node[23].nic.mac1609_4 	ReceivedUnicastPackets 	0
scalar MyScenario.node[23].nic.mac1609_4 	ReceivedBroadcasts 	3
scalar MyScenario.node[23].nic.mac1609_4 	SentPackets 	1
scalar MyScenario.node[23].nic.mac1609_4 	SNIRLostPackets 	17
scalar MyScenario.node[23].nic.mac1609_4 	RXTXLostPackets 	8
scalar MyScenario.node[23].nic.mac1609_4 	TotalLostPackets 	25
scalar MyScenario.node[23].nic.mac1609_4 	DroppedPacketsInMac 	0
scalar MyScenario.node[23].nic.mac1609_4 	TooLittleTime 	0
scalar MyScenario.node[23].nic.mac1609_4 	TimesIntoBackoff 	1
scalar MyScenario.node[23].nic.mac1609_4 	SlotsBackoff 	0
scalar MyScenario.node[23].nic.mac1609_4 	NumInternalContention 	0
scalar MyScenario.node[23].nic.mac1609_4 	totalBusyTime 	0.00208903141
scalar MyScenario.node[23].veinsmobility 	startTime 	1
scalar MyScenario.node[23].veinsmobility 	totalTime 	47
scalar MyScenario.node[23].veinsmobility 	stopTime 	49
scalar MyScenario.node[23].veinsmobility 	minSpeed 	0.00017713095351996
scalar MyScenario.node[23].veinsmobility 	maxSpeed 	13.855922928895
scalar MyScenario.node[23].veinsmobility 	totalDistance 	469.82546477922
scalar MyScenario.node[23].veinsmobility 	totalCO2Emission 	134.81907260868
scalar MyScenario.node[81].appl 	generatedWSMs 	1
scalar MyScenario.node[81].appl 	receivedWSMs 	1
scalar MyScenario.node[81].appl 	generatedBSMs 	0
scalar MyScenario.node[81].appl 	receivedBSMs 	0
scalar MyScenario.node[81].appl 	generatedWSAs 	0
scalar MyScenario.node[81].appl 	receivedWSAs 	0
scalar MyScenario.node[81].nic.phy80211p 	busyTime 	3.3833333333333e-05
scalar MyScenario.node[81].nic.mac1609_4 	ReceivedUnicastPackets 	0
scalar MyScenario.node[81].nic.mac1609_4 	ReceivedBroadcasts 	1
scalar MyScenario.node[81].nic.mac1609_4 	SentPackets 	1
scalar MyScenario.node[81].nic.mac1609_4 	SNIRLostPackets 	6
scalar MyScenario.node[81].nic.mac1609_4 	RXTXLostPackets 	7
scalar MyScenario.node[81].nic.mac1609_4 	TotalLostPackets 	13
scalar MyScenario.node[81].nic.mac1609_4 	DroppedPacketsInMac 	0
scalar MyScenario.node[81].nic.mac1609_4 	TooLittleTime 	0
scalar MyScenario.node[81].nic.mac1609_4 	TimesIntoBackoff 	1
scalar MyScenario.node[81].nic.mac1609_4 	SlotsBackoff 	2
scalar MyScenario.node[81].nic.mac1609_4 	NumInternalContention 	0
scalar MyScenario.node[81].nic.mac1609_4 	totalBusyTime 	0.000929
scalar MyScenario.node[81].veinsmobility 	startTime 	1
scalar MyScenario.node[81].veinsmobility 	totalTime 	47
scalar MyScenario.node[81].veinsmobility 	stopTime 	49
scalar MyScenario.node[81].veinsmobility 	minSpeed 	2.4851582406089
scalar MyScenario.node[81].veinsmobility 	maxSpeed 	13.898421431123
scalar MyScenario.node[81].veinsmobility 	totalDistance 	575.30884004168
scalar MyScenario.node[81].veinsmobility 	totalCO2Emission 	138.15117966251
scalar MyScenario.node[175].appl 	generatedWSMs 	0
scalar MyScenario.node[175].appl 	receivedWSMs 	0
scalar MyScenario.node[175].appl 	generatedBSMs 	0
scalar MyScenario.node[175].appl 	receivedBSMs 	0
scalar MyScenario.node[175].appl 	generatedWSAs 	0
scalar MyScenario.node[175].appl 	receivedWSAs 	0
scalar MyScenario.node[175].nic.phy80211p 	busyTime 	0
scalar MyScenario.node[175].nic.mac1609_4 	ReceivedUnicastPackets 	0
scalar MyScenario.node[175].nic.mac1609_4 	ReceivedBroadcasts 	0
scalar MyScenario.node[175].nic.mac1609_4 	SentPackets 	0
scalar MyScenario.node[175].nic.mac1609_4 	SNIRLostPackets 	0
scalar MyScenario.node[175].nic.mac1609_4 	RXTXLostPackets 	0
scalar MyScenario.node[175].nic.mac1609_4 	TotalLostPackets 	0
scalar MyScenario.node[175].nic.mac1609_4 	DroppedPacketsInMac 	0
scalar MyScenario.node[175].nic.mac1609_4 	TooLittleTime 	0
scalar MyScenario.node[175].nic.mac1609_4 	TimesIntoBackoff 	0
scalar MyScenario.node[175].nic.mac1609_4 	SlotsBackoff 	0
scalar MyScenario.node[175].nic.mac1609_4 	NumInternalContention 	0
scalar MyScenario.node[175].nic.mac1609_4 	totalBusyTime 	0
scalar MyScenario.node[175].veinsmobility 	startTime 	4
scalar MyScenario.node[175].veinsmobility 	totalTime 	44
scalar MyScenario.node[175].veinsmobility 	stopTime 	49
scalar MyScenario.node[175].veinsmobility 	minSpeed 	1.6947992467554
scalar MyScenario.node[175].veinsmobility 	maxSpeed 	13.895576697704
scalar MyScenario.node[175].veinsmobility 	totalDistance 	482.2278349875
scalar MyScenario.node[175].veinsmobility 	totalCO2Emission 	129.30645455376
scalar MyScenario.node[136].appl 	generatedWSMs 	0
scalar MyScenario.node[136].appl 	receivedWSMs 	0
scalar MyScenario.node[136].appl 	generatedBSMs 	0
scalar MyScenario.node[136].appl 	receivedBSMs 	0
scalar MyScenario.node[136].appl 	generatedWSAs 	0
scalar MyScenario.node[136].appl 	receivedWSAs 	0
scalar MyScenario.node[136].nic.phy80211p 	busyTime 	0
scalar MyScenario.node[136].nic.mac1609_4 	ReceivedUnicastPackets 	0
scalar MyScenario.node[136].nic.mac1609_4 	ReceivedBroadcasts 	0
scalar MyScenario.node[136].nic.mac1609_4 	SentPackets 	0
scalar MyScenario.node[136].nic.mac1609_4 	SNIRLostPackets 	0
scalar MyScenario.node[136].nic.mac1609_4 	RXTXLostPackets 	0
scalar MyScenario.node[136].nic.mac1609_4 	TotalLostPackets 	0
scalar MyScenario.node[136].nic.mac1609_4 	DroppedPacketsInMac 	0
scalar MyScenario.node[136].nic.mac1609_4 	TooLittleTime 	0
scalar MyScenario.node[136].nic.mac1609_4 	TimesIntoBackoff 	0
scalar MyScenario.node[136].nic.mac1609_4 	SlotsBackoff 	0
scalar MyScenario.node[136].nic.mac1609_4 	NumInternalContention 	0
scalar MyScenario.node[136].nic.mac1609_4 	totalBusyTime 	0
scalar MyScenario.node[136].veinsmobility 	startTime 	1
scalar MyScenario.node[136].veinsmobility 	totalTime 	48
scalar MyScenario.node[136].veinsmobility 	stopTime 	50
scalar MyScenario.node[136].veinsmobility 	minSpeed 	2.2975666218204
scalar MyScenario.node[136].veinsmobility 	maxSpeed 	13.85469336682
scalar MyScenario.node[136].veinsmobility 	totalDistance 	578.52692664894
scalar MyScenario.node[136].veinsmobility 	totalCO2Emission 	143.10837533286
scalar MyScenario.node[41].appl 	generatedWSMs 	0
scalar MyScenario.node[41].appl 	receivedWSMs 	0
scalar MyScenario.node[41].appl 	generatedBSMs 	0
scalar MyScenario.node[41].appl 	receivedBSMs 	0
scalar MyScenario.node[41].appl 	generatedWSAs 	0
scalar MyScenario.node[41].appl 	receivedWSAs 	0
scalar MyScenario.node[41].nic.phy80211p 	busyTime 	5.2081632653061e-05
scalar MyScenario.node[41].nic.mac1609_4 	ReceivedUnicastPackets 	0
scalar MyScenario.node[41].nic.mac1609_4 	ReceivedBroadcasts 	0
scalar MyScenario.node[41].nic.mac1609_4 	SentPackets 	0
scalar MyScenario.node[41].nic.mac1609_4 	SNIRLostPackets 	11
scalar MyScenario.node[41].nic.mac1609_4 	RXTXLostPackets 	0
scalar MyScenario.node[41].nic.mac1609_4 	TotalLostPackets 	11
scalar MyScenario.node[41].nic.mac1609_4 	DroppedPacketsInMac 	0
scalar MyScenario.node[41].nic.mac1609_4 	TooLittleTime 	0
scalar MyScenario.node[41].nic.mac1609_4 	TimesIntoBackoff 	0
scalar MyScenario.node[41].nic.mac1609_4 	SlotsBackoff 	0
scalar MyScenario.node[41].nic.mac1609_4 	NumInternalContention 	0
scalar MyScenario.node[41].nic.mac1609_4 	totalBusyTime 	0.000696
scalar MyScenario.node[41].veinsmobility 	startTime 	1
scalar MyScenario.node[41].veinsmobility 	totalTime 	48
scalar MyScenario.node[41].veinsmobility 	stopTime 	50
scalar MyScenario.node[41].veinsmobility 	minSpeed 	2.2090899255127
scalar MyScenario.node[41].veinsmobility 	maxSpeed 	13.878754173103
scalar MyScenario.node[41].veinsmobility 	totalDistance 	574.33662405532
scalar MyScenario.node[41].veinsmobility 	totalCO2Emission 	138.6845289152
scalar MyScenario.node[44].appl 	generatedWSMs 	0
scalar MyScenario.node[44].appl 	receivedWSMs 	0
scalar MyScenario.node[44].appl 	generatedBSMs 	0
scalar MyScenario.node[44].appl 	receivedBSMs 	0
scalar MyScenario.node[44].appl 	generatedWSAs 	0
scalar MyScenario.node[44].appl 	receivedWSAs 	0
scalar MyScenario.node[44].nic.phy80211p 	busyTime 	4.734693877551e-06
scalar MyScenario.node[44].nic.mac1609_4 	ReceivedUnicastPackets 	0
scalar MyScenario.node[44].nic.mac1609_4 	ReceivedBroadcasts 	0
scalar MyScenario.node[44].nic.mac1609_4 	SentPackets 	0
scalar MyScenario.node[44].nic.mac1609_4 	SNIRLostPackets 	1
scalar MyScenario.node[44].nic.mac1609_4 	RXTXLostPackets 	0
scalar MyScenario.node[44].nic.mac1609_4 	TotalLostPackets 	1
scalar MyScenario.node[44].nic.mac1609_4 	DroppedPacketsInMac 	0
scalar MyScenario.node[44].nic.mac1609_4 	TooLittleTime 	0
scalar MyScenario.node[44].nic.mac1609_4 	TimesIntoBackoff 	0
scalar MyScenario.node[44].nic.mac1609_4 	SlotsBackoff 	0
scalar MyScenario.node[44].nic.mac1609_4 	NumInternalContention 	0
scalar MyScenario.node[44].nic.mac1609_4 	totalBusyTime 	0.000232
scalar MyScenario.node[44].veinsmobility 	startTime 	1
scalar MyScenario.node[44].veinsmobility 	totalTime 	48
scalar MyScenario.node[44].veinsmobility 	stopTime 	50
scalar MyScenario.node[44].veinsmobility 	minSpeed 	2.5601983566536
scalar MyScenario.node[44].veinsmobility 	maxSpeed 	13.888742952468
scalar MyScenario.node[44].veinsmobility 	totalDistance 	579.39962603249
scalar MyScenario.node[44].veinsmobility 	totalCO2Emission 	150.80574577306
scalar MyScenario.node[122].appl 	generatedWSMs 	0
scalar MyScenario.node[122].appl 	receivedWSMs 	0
scalar MyScenario.node[122].appl 	generatedBSMs 	0
scalar MyScenario.node[122].appl 	receivedBSMs 	0
scalar MyScenario.node[122].appl 	generatedWSAs 	0
scalar MyScenario.node[122].appl 	receivedWSAs 	0
scalar MyScenario.node[122].nic.phy80211p 	busyTime 	0
scalar MyScenario.node[122].nic.mac1609_4 	ReceivedUnicastPackets 	0
scalar MyScenario.node[122].nic.mac1609_4 	ReceivedBroadcasts 	0
scalar MyScenario.node[122].nic.mac1609_4 	SentPackets 	0
scalar MyScenario.node[122].nic.mac1609_4 	SNIRLostPackets 	0
scalar MyScenario.node[122].nic.mac1609_4 	RXTXLostPackets 	0
scalar MyScenario.node[122].nic.mac1609_4 	TotalLostPackets 	0
scalar MyScenario.node[122].nic.mac1609_4 	DroppedPacketsInMac 	0
scalar MyScenario.node[122].nic.mac1609_4 	TooLittleTime 	0
scalar MyScenario.node[122].nic.mac1609_4 	TimesIntoBackoff 	0
scalar MyScenario.node[122].nic.mac1609_4 	SlotsBackoff 	0
scalar MyScenario.node[122].nic.mac1609_4 	NumInternalContention 	0
scalar MyScenario.node[122].nic.mac1609_4 	totalBusyTime 	0
scalar MyScenario.node[122].veinsmobility 	startTime 	1
scalar MyScenario.node[122].veinsmobility 	totalTime 	48
scalar MyScenario.node[122].veinsmobility 	stopTime 	50
scalar MyScenario.node[122].veinsmobility 	minSpeed 	2.4962695093593
scalar MyScenario.node[122].veinsmobility 	maxSpeed 	13.866589808557
scalar MyScenario.node[122].veinsmobility 	totalDistance 	567.41553284726
scalar MyScenario.node[122].veinsmobility 	totalCO2Emission 	142.219221904
scalar MyScenario.node[114].appl 	generatedWSMs 	0
scalar MyScenario.node[114].appl 	receivedWSMs 	0
scalar MyScenario.node[114].appl 	generatedBSMs 	0
scalar MyScenario.node[114].appl 	receivedBSMs 	0
scalar MyScenario.node[114].appl 	generatedWSAs 	0
scalar MyScenario.node[114].appl 	receivedWSAs 	0
scalar MyScenario.node[114].nic.phy80211p 	busyTime 	6.032e-05
scalar MyScenario.node[114].nic.mac1609_4 	ReceivedUnicastPackets 	0
scalar MyScenario.node[114].nic.mac1609_4 	ReceivedBroadcasts 	0
scalar MyScenario.node[114].nic.mac1609_4 	SentPackets 	0
scalar MyScenario.node[114].nic.mac1609_4 	SNIRLostPackets 	13
scalar MyScenario.node[114].nic.mac1609_4 	RXTXLostPackets 	0
scalar MyScenario.node[114].nic.mac1609_4 	TotalLostPackets 	13
scalar MyScenario.node[114].nic.mac1609_4 	DroppedPacketsInMac 	0
scalar MyScenario.node[114].nic.mac1609_4 	TooLittleTime 	0
scalar MyScenario.node[114].nic.mac1609_4 	TimesIntoBackoff 	0
scalar MyScenario.node[114].nic.mac1609_4 	SlotsBackoff 	0
scalar MyScenario.node[114].nic.mac1609_4 	NumInternalContention 	0
scalar MyScenario.node[114].nic.mac1609_4 	totalBusyTime 	0.000696
scalar MyScenario.node[114].veinsmobility 	startTime 	1
scalar MyScenario.node[114].veinsmobility 	totalTime 	49
scalar MyScenario.node[114].veinsmobility 	stopTime 	51
scalar MyScenario.node[114].veinsmobility 	minSpeed 	1.9519408820895
scalar MyScenario.node[114].veinsmobility 	maxSpeed 	13.874417612795
scalar MyScenario.node[114].veinsmobility 	totalDistance 	561.94257786462
scalar MyScenario.node[114].veinsmobility 	totalCO2Emission 	155.11572228776
scalar MyScenario.node[135].appl 	generatedWSMs 	1
scalar MyScenario.node[135].appl 	receivedWSMs 	4
scalar MyScenario.node[135].appl 	generatedBSMs 	0
scalar MyScenario.node[135].appl 	receivedBSMs 	0
scalar MyScenario.node[135].appl 	generatedWSAs 	0
scalar MyScenario.node[135].appl 	receivedWSAs 	0
scalar MyScenario.node[135].nic.phy80211p 	busyTime 	0.00018096
scalar MyScenario.node[135].nic.mac1609_4 	ReceivedUnicastPackets 	0
scalar MyScenario.node[135].nic.mac1609_4 	ReceivedBroadcasts 	4
scalar MyScenario.node[135].nic.mac1609_4 	SentPackets 	1
scalar MyScenario.node[135].nic.mac1609_4 	SNIRLostPackets 	35
scalar MyScenario.node[135].nic.mac1609_4 	RXTXLostPackets 	7
scalar MyScenario.node[135].nic.mac1609_4 	TotalLostPackets 	42
scalar MyScenario.node[135].nic.mac1609_4 	DroppedPacketsInMac 	0
scalar MyScenario.node[135].nic.mac1609_4 	TooLittleTime 	0
scalar MyScenario.node[135].nic.mac1609_4 	TimesIntoBackoff 	1
scalar MyScenario.node[135].nic.mac1609_4 	SlotsBackoff 	3
scalar MyScenario.node[135].nic.mac1609_4 	NumInternalContention 	0
scalar MyScenario.node[135].nic.mac1609_4 	totalBusyTime 	0.002785202766
scalar MyScenario.node[135].veinsmobility 	startTime 	1
scalar MyScenario.node[135].veinsmobility 	totalTime 	49
scalar MyScenario.node[135].veinsmobility 	stopTime 	51
scalar MyScenario.node[135].veinsmobility 	minSpeed 	1.7544836585876
scalar MyScenario.node[135].veinsmobility 	maxSpeed 	13.897884245543
scalar MyScenario.node[135].veinsmobility 	totalDistance 	583.17329905202
scalar MyScenario.node[135].veinsmobility 	totalCO2Emission 	135.74590533694
scalar MyScenario.node[116].appl 	generatedWSMs 	1
scalar MyScenario.node[116].appl 	receivedWSMs 	6
scalar MyScenario.node[116].appl 	generatedBSMs 	0
scalar MyScenario.node[116].appl 	receivedBSMs 	0
scalar MyScenario.node[116].appl 	generatedWSAs 	0
scalar MyScenario.node[116].appl 	receivedWSAs 	0
scalar MyScenario.node[116].nic.phy80211p 	busyTime 	7.424e-05
scalar MyScenario.node[116].nic.mac1609_4 	ReceivedUnicastPackets 	0
scalar MyScenario.node[116].nic.mac1609_4 	ReceivedBroadcasts 	6
scalar MyScenario.node[116].nic.mac1609_4 	SentPackets 	1
scalar MyScenario.node[116].nic.mac1609_4 	SNIRLostPackets 	10
scalar MyScenario.node[116].nic.mac1609_4 	RXTXLostPackets 	7
scalar MyScenario.node[116].nic.mac1609_4 	TotalLostPackets 	17
scalar MyScenario.node[116].nic.mac1609_4 	DroppedPacketsInMac 	0
scalar MyScenario.node[116].nic.mac1609_4 	TooLittleTime 	0
scalar MyScenario.node[116].nic.mac1609_4 	TimesIntoBackoff 	1
scalar MyScenario.node[116].nic.mac1609_4 	SlotsBackoff 	1
scalar MyScenario.node[116].nic.mac1609_4 	NumInternalContention 	0
scalar MyScenario.node[116].nic.mac1609_4 	totalBusyTime 	0.002553
scalar MyScenario.node[116].veinsmobility 	startTime 	1
scalar MyScenario.node[116].veinsmobility 	totalTime 	49
scalar MyScenario.node[116].veinsmobility 	stopTime 	51
scalar MyScenario.node[116].veinsmobility 	minSpeed 	1.4508825854864
scalar MyScenario.node[116].veinsmobility 	maxSpeed 	13.889661434432
scalar MyScenario.node[116].veinsmobility 	totalDistance 	571.24805709546
scalar MyScenario.node[116].veinsmobility 	totalCO2Emission 	163.57492621104
scalar MyScenario.node[42].appl 	generatedWSMs 	1
scalar MyScenario.node[42].appl 	receivedWSMs 	2
scalar MyScenario.node[42].appl 	generatedBSMs 	0
scalar MyScenario.node[42].appl 	receivedBSMs 	0
scalar MyScenario.node[42].appl 	generatedWSAs 	0
scalar MyScenario.node[42].appl 	receivedWSAs 	0
scalar MyScenario.node[42].nic.phy80211p 	busyTime 	3.248e-05
scalar MyScenario.node[42].nic.mac1609_4 	ReceivedUnicastPackets 	0
scalar MyScenario.node[42].nic.mac1609_4 	ReceivedBroadcasts 	2
scalar MyScenario.node[42].nic.mac1609_4 	SentPackets 	1
scalar MyScenario.node[42].nic.mac1609_4 	SNIRLostPackets 	5
scalar MyScenario.node[42].nic.mac1609_4 	RXTXLostPackets 	7
scalar MyScenario.node[42].nic.mac1609_4 	TotalLostPackets 	12
scalar MyScenario.node[42].nic.mac1609_4 	DroppedPacketsInMac 	0
scalar MyScenario.node[42].nic.mac1609_4 	TooLittleTime 	0
scalar MyScenario.node[42].nic.mac1609_4 	TimesIntoBackoff 	1
scalar MyScenario.node[42].nic.mac1609_4 	SlotsBackoff 	0
scalar MyScenario.node[42].nic.mac1609_4 	NumInternalContention 	0
scalar MyScenario.node[42].nic.mac1609_4 	totalBusyTime 	0.00139301959
scalar MyScenario.node[42].veinsmobility 	startTime 	1
scalar MyScenario.node[42].veinsmobility 	totalTime 	49
scalar MyScenario.node[42].veinsmobility 	stopTime 	51
scalar MyScenario.node[42].veinsmobility 	minSpeed 	2.176834870805
scalar MyScenario.node[42].veinsmobility 	maxSpeed 	13.846064827009
scalar MyScenario.node[42].veinsmobility 	totalDistance 	572.55687402314
scalar MyScenario.node[42].veinsmobility 	totalCO2Emission 	153.70889643551
scalar MyScenario.node[7].appl 	generatedWSMs 	0
scalar MyScenario.node[7].appl 	receivedWSMs 	0
scalar MyScenario.node[7].appl 	generatedBSMs 	0
scalar MyScenario.node[7].appl 	receivedBSMs 	0
scalar MyScenario.node[7].appl 	generatedWSAs 	0
scalar MyScenario.node[7].appl 	receivedWSAs 	0
scalar MyScenario.node[7].nic.phy80211p 	busyTime 	2.784e-05
scalar MyScenario.node[7].nic.mac1609_4 	ReceivedUnicastPackets 	0
scalar MyScenario.node[7].nic.mac1609_4 	ReceivedBroadcasts 	0
scalar MyScenario.node[7].nic.mac1609_4 	SentPackets 	0
scalar MyScenario.node[7].nic.mac1609_4 	SNIRLostPackets 	6
scalar MyScenario.node[7].nic.mac1609_4 	RXTXLostPackets 	0
scalar MyScenario.node[7].nic.mac1609_4 	TotalLostPackets 	6
scalar MyScenario.node[7].nic.mac1609_4 	DroppedPacketsInMac 	0
scalar MyScenario.node[7].nic.mac1609_4 	TooLittleTime 	0
scalar MyScenario.node[7].nic.mac1609_4 	TimesIntoBackoff 	0
scalar MyScenario.node[7].nic.mac1609_4 	SlotsBackoff 	0
scalar MyScenario.node[7].nic.mac1609_4 	NumInternalContention 	0
scalar MyScenario.node[7].nic.mac1609_4 	totalBusyTime 	0.000464
scalar MyScenario.node[7].veinsmobility 	startTime 	1
scalar MyScenario.node[7].veinsmobility 	totalTime 	49
scalar MyScenario.node[7].veinsmobility 	stopTime 	51
scalar MyScenario.node[7].veinsmobility 	minSpeed 	2.0897119769594
scalar MyScenario.node[7].veinsmobility 	maxSpeed 	13.882501171809
scalar MyScenario.node[7].veinsmobility 	totalDistance 	556.77096835226
scalar MyScenario.node[7].veinsmobility 	totalCO2Emission 	161.59551864794
scalar MyScenario.node[63].appl 	generatedWSMs 	0
scalar MyScenario.node[63].appl 	receivedWSMs 	0
scalar MyScenario.node[63].appl 	generatedBSMs 	0
scalar MyScenario.node[63].appl 	receivedBSMs 	0
scalar MyScenario.node[63].appl 	generatedWSAs 	0
scalar MyScenario.node[63].appl 	receivedWSAs 	0
scalar MyScenario.node[63].nic.phy80211p 	busyTime 	0
scalar MyScenario.node[63].nic.mac1609_4 	ReceivedUnicastPackets 	0
scalar MyScenario.node[63].nic.mac1609_4 	ReceivedBroadcasts 	0
scalar MyScenario.node[63].nic.mac1609_4 	SentPackets 	0
scalar MyScenario.node[63].nic.mac1609_4 	SNIRLostPackets 	0
scalar MyScenario.node[63].nic.mac1609_4 	RXTXLostPackets 	0
scalar MyScenario.node[63].nic.mac1609_4 	TotalLostPackets 	0
scalar MyScenario.node[63].nic.mac1609_4 	DroppedPacketsInMac 	0
scalar MyScenario.node[63].nic.mac1609_4 	TooLittleTime 	0
scalar MyScenario.node[63].nic.mac1609_4 	TimesIntoBackoff 	0
scalar MyScenario.node[63].nic.mac1609_4 	SlotsBackoff 	0
scalar MyScenario.node[63].nic.mac1609_4 	NumInternalContention 	0
scalar MyScenario.node[63].nic.mac1609_4 	totalBusyTime 	0
scalar MyScenario.node[63].veinsmobility 	startTime 	1
scalar MyScenario.node[63].veinsmobility 	totalTime 	50
scalar MyScenario.node[63].veinsmobility 	stopTime 	52
scalar MyScenario.node[63].veinsmobility 	minSpeed 	2.1022753534373
scalar MyScenario.node[63].veinsmobility 	maxSpeed 	13.760724616307
scalar MyScenario.node[63].veinsmobility 	totalDistance 	573.74638068696
scalar MyScenario.node[63].veinsmobility 	totalCO2Emission 	155.18392367153
scalar MyScenario.node[13].appl 	generatedWSMs 	0
scalar MyScenario.node[13].appl 	receivedWSMs 	0
scalar MyScenario.node[13].appl 	generatedBSMs 	0
scalar MyScenario.node[13].appl 	receivedBSMs 	0
scalar MyScenario.node[13].appl 	generatedWSAs 	0
scalar MyScenario.node[13].appl 	receivedWSAs 	0
scalar MyScenario.node[13].nic.phy80211p 	busyTime 	0
scalar MyScenario.node[13].nic.mac1609_4 	ReceivedUnicastPackets 	0
scalar MyScenario.node[13].nic.mac1609_4 	ReceivedBroadcasts 	0
scalar MyScenario.node[13].nic.mac1609_4 	SentPackets 	0
scalar MyScenario.node[13].nic.mac1609_4 	SNIRLostPackets 	0
scalar MyScenario.node[13].nic.mac1609_4 	RXTXLostPackets 	0
scalar MyScenario.node[13].nic.mac1609_4 	TotalLostPackets 	0
scalar MyScenario.node[13].nic.mac1609_4 	DroppedPacketsInMac 	0
scalar MyScenario.node[13].nic.mac1609_4 	TooLittleTime 	0
scalar MyScenario.node[13].nic.mac1609_4 	TimesIntoBackoff 	0
scalar MyScenario.node[13].nic.mac1609_4 	SlotsBackoff 	0
scalar MyScenario.node[13].nic.mac1609_4 	NumInternalContention 	0
scalar MyScenario.node[13].nic.mac1609_4 	totalBusyTime 	0
scalar MyScenario.node[13].veinsmobility 	startTime 	1
scalar MyScenario.node[13].veinsmobility 	totalTime 	50
scalar MyScenario.node[13].veinsmobility 	stopTime 	52
scalar MyScenario.node[13].veinsmobility 	minSpeed 	1.9050746662309
scalar MyScenario.node[13].veinsmobility 	maxSpeed 	13.845661043935
scalar MyScenario.node[13].veinsmobility 	totalDistance 	577.09680551431
scalar MyScenario.node[13].veinsmobility 	totalCO2Emission 	156.19338829415
scalar MyScenario.node[54].appl 	generatedWSMs 	0
scalar MyScenario.node[54].appl 	receivedWSMs 	0
scalar MyScenario.node[54].appl 	generatedBSMs 	0
scalar MyScenario.node[54].appl 	receivedBSMs 	0
scalar MyScenario.node[54].appl 	generatedWSAs 	0
scalar MyScenario.node[54].appl 	receivedWSAs 	0
scalar MyScenario.node[54].nic.phy80211p 	busyTime 	0
scalar MyScenario.node[54].nic.mac1609_4 	ReceivedUnicastPackets 	0
scalar MyScenario.node[54].nic.mac1609_4 	ReceivedBroadcasts 	0
scalar MyScenario.node[54].nic.mac1609_4 	SentPackets 	0
scalar MyScenario.node[54].nic.mac1609_4 	SNIRLostPackets 	0
scalar MyScenario.node[54].nic.mac1609_4 	RXTXLostPackets 	0
scalar MyScenario.node[54].nic.mac1609_4 	TotalLostPackets 	0
scalar MyScenario.node[54].nic.mac1609_4 	DroppedPacketsInMac 	0
scalar MyScenario.node[54].nic.mac1609_4 	TooLittleTime 	0
scalar MyScenario.node[54].nic.mac1609_4 	TimesIntoBackoff 	0
scalar MyScenario.node[54].nic.mac1609_4 	SlotsBackoff 	0
scalar MyScenario.node[54].nic.mac1609_4 	NumInternalContention 	0
scalar MyScenario.node[54].nic.mac1609_4 	totalBusyTime 	0
scalar MyScenario.node[54].veinsmobility 	startTime 	1
scalar MyScenario.node[54].veinsmobility 	totalTime 	50
scalar MyScenario.node[54].veinsmobility 	stopTime 	52
scalar MyScenario.node[54].veinsmobility 	minSpeed 	1.7236262955237
scalar MyScenario.node[54].veinsmobility 	maxSpeed 	13.890435167635
scalar MyScenario.node[54].veinsmobility 	totalDistance 	575.24157267663
scalar MyScenario.node[54].veinsmobility 	totalCO2Emission 	158.96747057531
scalar MyScenario.node[37].appl 	generatedWSMs 	0
scalar MyScenario.node[37].appl 	receivedWSMs 	0
scalar MyScenario.node[37].appl 	generatedBSMs 	0
scalar MyScenario.node[37].appl 	receivedBSMs 	0
scalar MyScenario.node[37].appl 	generatedWSAs 	0
scalar MyScenario.node[37].appl 	receivedWSAs 	0
scalar MyScenario.node[37].nic.phy80211p 	busyTime 	0
scalar MyScenario.node[37].nic.mac1609_4 	ReceivedUnicastPackets 	0
scalar MyScenario.node[37].nic.mac1609_4 	ReceivedBroadcasts 	0
scalar MyScenario.node[37].nic.mac1609_4 	SentPackets 	0
scalar MyScenario.node[37].nic.mac1609_4 	SNIRLostPackets 	0
scalar MyScenario.node[37].nic.mac1609_4 	RXTXLostPackets 	0
scalar MyScenario.node[37].nic.mac1609_4 	TotalLostPackets 	0
scalar MyScenario.node[37].nic.mac1609_4 	DroppedPacketsInMac 	0
scalar MyScenario.node[37].nic.mac1609_4 	TooLittleTime 	0
scalar MyScenario.node[37].nic.mac1609_4 	TimesIntoBackoff 	0
scalar MyScenario.node[37].nic.mac1609_4 	SlotsBackoff 	0
scalar MyScenario.node[37].nic.mac1609_4 	NumInternalContention 	0
scalar MyScenario.node[37].nic.mac1609_4 	totalBusyTime 	0
scalar MyScenario.node[37].veinsmobility 	startTime 	1
scalar MyScenario.node[37].veinsmobility 	totalTime 	51
scalar MyScenario.node[37].veinsmobility 	stopTime 	53
scalar MyScenario.node[37].veinsmobility 	minSpeed 	2.1146570136538
scalar MyScenario.node[37].veinsmobility 	maxSpeed 	13.860391806602
scalar MyScenario.node[37].veinsmobility 	totalDistance 	557.80679359446
scalar MyScenario.node[37].veinsmobility 	totalCO2Emission 	167.56346664203
scalar MyScenario.node[20].appl 	generatedWSMs 	0
scalar MyScenario.node[20].appl 	receivedWSMs 	0
scalar MyScenario.node[20].appl 	generatedBSMs 	0
scalar MyScenario.node[20].appl 	receivedBSMs 	0
scalar MyScenario.node[20].appl 	generatedWSAs 	0
scalar MyScenario.node[20].appl 	receivedWSAs 	0
scalar MyScenario.node[20].nic.phy80211p 	busyTime 	0
scalar MyScenario.node[20].nic.mac1609_4 	ReceivedUnicastPackets 	0
scalar MyScenario.node[20].nic.mac1609_4 	ReceivedBroadcasts 	0
scalar MyScenario.node[20].nic.mac1609_4 	SentPackets 	0
scalar MyScenario.node[20].nic.mac1609_4 	SNIRLostPackets 	0
scalar MyScenario.node[20].nic.mac1609_4 	RXTXLostPackets 	0
scalar MyScenario.node[20].nic.mac1609_4 	TotalLostPackets 	0
scalar MyScenario.node[20].nic.mac1609_4 	DroppedPacketsInMac 	0
scalar MyScenario.node[20].nic.mac1609_4 	TooLittleTime 	0
scalar MyScenario.node[20].nic.mac1609_4 	TimesIntoBackoff 	0
scalar MyScenario.node[20].nic.mac1609_4 	SlotsBackoff 	0
scalar MyScenario.node[20].nic.mac1609_4 	NumInternalContention 	0
scalar MyScenario.node[20].nic.mac1609_4 	totalBusyTime 	0
scalar MyScenario.node[20].veinsmobility 	startTime 	1
scalar MyScenario.node[20].veinsmobility 	totalTime 	51
scalar MyScenario.node[20].veinsmobility 	stopTime 	53
scalar MyScenario.node[20].veinsmobility 	minSpeed 	1.4910441078944
scalar MyScenario.node[20].veinsmobility 	maxSpeed 	13.850582299661
scalar MyScenario.node[20].veinsmobility 	totalDistance 	575.77382601774
scalar MyScenario.node[20].veinsmobility 	totalCO2Emission 	162.37566292687
scalar MyScenario.node[50].appl 	generatedWSMs 	1
scalar MyScenario.node[50].appl 	receivedWSMs 	5
scalar MyScenario.node[50].appl 	generatedBSMs 	0
scalar MyScenario.node[50].appl 	receivedBSMs 	0
scalar MyScenario.node[50].appl 	generatedWSAs 	0
scalar MyScenario.node[50].appl 	receivedWSAs 	0
scalar MyScenario.node[50].nic.phy80211p 	busyTime 	9.3692307692308e-05
scalar MyScenario.node[50].nic.mac1609_4 	ReceivedUnicastPackets 	0
scalar MyScenario.node[50].nic.mac1609_4 	ReceivedBroadcasts 	5
scalar MyScenario.node[50].nic.mac1609_4 	SentPackets 	1
scalar MyScenario.node[50].nic.mac1609_4 	SNIRLostPackets 	16
scalar MyScenario.node[50].nic.mac1609_4 	RXTXLostPackets 	1
scalar MyScenario.node[50].nic.mac1609_4 	TotalLostPackets 	17
scalar MyScenario.node[50].nic.mac1609_4 	DroppedPacketsInMac 	0
scalar MyScenario.node[50].nic.mac1609_4 	TooLittleTime 	0
scalar MyScenario.node[50].nic.mac1609_4 	TimesIntoBackoff 	1
scalar MyScenario.node[50].nic.mac1609_4 	SlotsBackoff 	2
scalar MyScenario.node[50].nic.mac1609_4 	NumInternalContention 	0
scalar MyScenario.node[50].nic.mac1609_4 	totalBusyTime 	0.002321
scalar MyScenario.node[50].veinsmobility 	startTime 	1
scalar MyScenario.node[50].veinsmobility 	totalTime 	51
scalar MyScenario.node[50].veinsmobility 	stopTime 	53
scalar MyScenario.node[50].veinsmobility 	minSpeed 	2.1497487075161
scalar MyScenario.node[50].veinsmobility 	maxSpeed 	13.762815457792
scalar MyScenario.node[50].veinsmobility 	totalDistance 	563.03818665295
scalar MyScenario.node[50].veinsmobility 	totalCO2Emission 	172.44824741005
scalar MyScenario.node[26].appl 	generatedWSMs 	0
scalar MyScenario.node[26].appl 	receivedWSMs 	0
scalar MyScenario.node[26].appl 	generatedBSMs 	0
scalar MyScenario.node[26].appl 	receivedBSMs 	0
scalar MyScenario.node[26].appl 	generatedWSAs 	0
scalar MyScenario.node[26].appl 	receivedWSAs 	0
scalar MyScenario.node[26].nic.phy80211p 	busyTime 	0
scalar MyScenario.node[26].nic.mac1609_4 	ReceivedUnicastPackets 	0
scalar MyScenario.node[26].nic.mac1609_4 	ReceivedBroadcasts 	0
scalar MyScenario.node[26].nic.mac1609_4 	SentPackets 	0
scalar MyScenario.node[26].nic.mac1609_4 	SNIRLostPackets 	0
scalar MyScenario.node[26].nic.mac1609_4 	RXTXLostPackets 	0
scalar MyScenario.node[26].nic.mac1609_4 	TotalLostPackets 	0
scalar MyScenario.node[26].nic.mac1609_4 	DroppedPacketsInMac 	0
scalar MyScenario.node[26].nic.mac1609_4 	TooLittleTime 	0
scalar MyScenario.node[26].nic.mac1609_4 	TimesIntoBackoff 	0
scalar MyScenario.node[26].nic.mac1609_4 	SlotsBackoff 	0
scalar MyScenario.node[26].nic.mac1609_4 	NumInternalContention 	0
scalar MyScenario.node[26].nic.mac1609_4 	totalBusyTime 	0
scalar MyScenario.node[26].veinsmobility 	startTime 	1
scalar MyScenario.node[26].veinsmobility 	totalTime 	52
[...]
scalar MyScenario.node[64].nic.mac1609_4 	RXTXLostPackets 	10
scalar MyScenario.node[64].nic.mac1609_4 	TotalLostPackets 	24
scalar MyScenario.node[64].nic.mac1609_4 	DroppedPacketsInMac 	0
scalar MyScenario.node[64].nic.mac1609_4 	TooLittleTime 	0
scalar MyScenario.node[64].nic.mac1609_4 	TimesIntoBackoff 	1
scalar MyScenario.node[64].nic.mac1609_4 	SlotsBackoff 	2
scalar MyScenario.node[64].nic.mac1609_4 	NumInternalContention 	0
scalar MyScenario.node[64].nic.mac1609_4 	totalBusyTime 	0.001161017824
scalar MyScenario.node[64].veinsmobility 	startTime 	1
scalar MyScenario.node[64].veinsmobility 	totalTime 	122
scalar MyScenario.node[64].veinsmobility 	stopTime 	124
scalar MyScenario.node[64].veinsmobility 	minSpeed 	0.0001130076419935
scalar MyScenario.node[64].veinsmobility 	maxSpeed 	13.893935322459
scalar MyScenario.node[64].veinsmobility 	totalDistance 	1071.3084786178
scalar MyScenario.node[64].veinsmobility 	totalCO2Emission 	361.44360348681
scalar MyScenario.node[140].appl 	generatedWSMs 	1
scalar MyScenario.node[140].appl 	receivedWSMs 	3
scalar MyScenario.node[140].appl 	generatedBSMs 	0
scalar MyScenario.node[140].appl 	receivedBSMs 	0
scalar MyScenario.node[140].appl 	generatedWSAs 	0
scalar MyScenario.node[140].appl 	receivedWSAs 	0
scalar MyScenario.node[140].nic.phy80211p 	busyTime 	1.6975609756098e-05
scalar MyScenario.node[140].nic.mac1609_4 	ReceivedUnicastPackets 	0
scalar MyScenario.node[140].nic.mac1609_4 	ReceivedBroadcasts 	3
scalar MyScenario.node[140].nic.mac1609_4 	SentPackets 	1
scalar MyScenario.node[140].nic.mac1609_4 	SNIRLostPackets 	6
scalar MyScenario.node[140].nic.mac1609_4 	RXTXLostPackets 	6
scalar MyScenario.node[140].nic.mac1609_4 	TotalLostPackets 	12
scalar MyScenario.node[140].nic.mac1609_4 	DroppedPacketsInMac 	0
scalar MyScenario.node[140].nic.mac1609_4 	TooLittleTime 	0
scalar MyScenario.node[140].nic.mac1609_4 	TimesIntoBackoff 	1
scalar MyScenario.node[140].nic.mac1609_4 	SlotsBackoff 	2
scalar MyScenario.node[140].nic.mac1609_4 	NumInternalContention 	0
scalar MyScenario.node[140].nic.mac1609_4 	totalBusyTime 	0.001161099456
scalar MyScenario.node[140].veinsmobility 	startTime 	1
scalar MyScenario.node[140].veinsmobility 	totalTime 	122
scalar MyScenario.node[140].veinsmobility 	stopTime 	124
scalar MyScenario.node[140].veinsmobility 	minSpeed 	3.7649862352104e-05
scalar MyScenario.node[140].veinsmobility 	maxSpeed 	13.895689050644
scalar MyScenario.node[140].veinsmobility 	totalDistance 	1084.8188252128
scalar MyScenario.node[140].veinsmobility 	totalCO2Emission 	409.48579607235
scalar MyScenario.node[131].appl 	generatedWSMs 	1
scalar MyScenario.node[131].appl 	receivedWSMs 	11
scalar MyScenario.node[131].appl 	generatedBSMs 	0
scalar MyScenario.node[131].appl 	receivedBSMs 	0
scalar MyScenario.node[131].appl 	generatedWSAs 	0
scalar MyScenario.node[131].appl 	receivedWSAs 	0
scalar MyScenario.node[131].nic.phy80211p 	busyTime 	4.4903225806452e-05
scalar MyScenario.node[131].nic.mac1609_4 	ReceivedUnicastPackets 	0
scalar MyScenario.node[131].nic.mac1609_4 	ReceivedBroadcasts 	11
scalar MyScenario.node[131].nic.mac1609_4 	SentPackets 	1
scalar MyScenario.node[131].nic.mac1609_4 	SNIRLostPackets 	13
scalar MyScenario.node[131].nic.mac1609_4 	RXTXLostPackets 	8
scalar MyScenario.node[131].nic.mac1609_4 	TotalLostPackets 	21
scalar MyScenario.node[131].nic.mac1609_4 	DroppedPacketsInMac 	0
scalar MyScenario.node[131].nic.mac1609_4 	TooLittleTime 	0
scalar MyScenario.node[131].nic.mac1609_4 	TimesIntoBackoff 	1
scalar MyScenario.node[131].nic.mac1609_4 	SlotsBackoff 	0
scalar MyScenario.node[131].nic.mac1609_4 	NumInternalContention 	0
scalar MyScenario.node[131].nic.mac1609_4 	totalBusyTime 	0.003945013711
scalar MyScenario.node[131].veinsmobility 	startTime 	1
scalar MyScenario.node[131].veinsmobility 	totalTime 	123
scalar MyScenario.node[131].veinsmobility 	stopTime 	125
scalar MyScenario.node[131].veinsmobility 	minSpeed 	0.090874198256393
scalar MyScenario.node[131].veinsmobility 	maxSpeed 	13.879985992261
scalar MyScenario.node[131].veinsmobility 	totalDistance 	1353.216991161
scalar MyScenario.node[131].veinsmobility 	totalCO2Emission 	337.95094663696
scalar MyScenario.node[134].appl 	generatedWSMs 	0
scalar MyScenario.node[134].appl 	receivedWSMs 	0
scalar MyScenario.node[134].appl 	generatedBSMs 	0
scalar MyScenario.node[134].appl 	receivedBSMs 	0
scalar MyScenario.node[134].appl 	generatedWSAs 	0
scalar MyScenario.node[134].appl 	receivedWSAs 	0
scalar MyScenario.node[134].nic.phy80211p 	busyTime 	7.4838709677419e-06
scalar MyScenario.node[134].nic.mac1609_4 	ReceivedUnicastPackets 	0
scalar MyScenario.node[134].nic.mac1609_4 	ReceivedBroadcasts 	0
scalar MyScenario.node[134].nic.mac1609_4 	SentPackets 	0
scalar MyScenario.node[134].nic.mac1609_4 	SNIRLostPackets 	4
scalar MyScenario.node[134].nic.mac1609_4 	RXTXLostPackets 	0
scalar MyScenario.node[134].nic.mac1609_4 	TotalLostPackets 	4
scalar MyScenario.node[134].nic.mac1609_4 	DroppedPacketsInMac 	0
scalar MyScenario.node[134].nic.mac1609_4 	TooLittleTime 	0
scalar MyScenario.node[134].nic.mac1609_4 	TimesIntoBackoff 	0
scalar MyScenario.node[134].nic.mac1609_4 	SlotsBackoff 	0
scalar MyScenario.node[134].nic.mac1609_4 	NumInternalContention 	0
scalar MyScenario.node[134].nic.mac1609_4 	totalBusyTime 	0.000232
scalar MyScenario.node[134].veinsmobility 	startTime 	1
scalar MyScenario.node[134].veinsmobility 	totalTime 	123
scalar MyScenario.node[134].veinsmobility 	stopTime 	125
scalar MyScenario.node[134].veinsmobility 	minSpeed 	0.01242312697785
scalar MyScenario.node[134].veinsmobility 	maxSpeed 	13.894612339465
scalar MyScenario.node[134].veinsmobility 	totalDistance 	1279.5570328591
scalar MyScenario.node[134].veinsmobility 	totalCO2Emission 	376.93793993504
scalar MyScenario.node[147].appl 	generatedWSMs 	0
scalar MyScenario.node[147].appl 	receivedWSMs 	0
scalar MyScenario.node[147].appl 	generatedBSMs 	0
scalar MyScenario.node[147].appl 	receivedBSMs 	0
scalar MyScenario.node[147].appl 	generatedWSAs 	0
scalar MyScenario.node[147].appl 	receivedWSAs 	0
scalar MyScenario.node[147].nic.phy80211p 	busyTime 	0
scalar MyScenario.node[147].nic.mac1609_4 	ReceivedUnicastPackets 	0
scalar MyScenario.node[147].nic.mac1609_4 	ReceivedBroadcasts 	0
scalar MyScenario.node[147].nic.mac1609_4 	SentPackets 	0
scalar MyScenario.node[147].nic.mac1609_4 	SNIRLostPackets 	0
scalar MyScenario.node[147].nic.mac1609_4 	RXTXLostPackets 	0
scalar MyScenario.node[147].nic.mac1609_4 	TotalLostPackets 	0
scalar MyScenario.node[147].nic.mac1609_4 	DroppedPacketsInMac 	0
scalar MyScenario.node[147].nic.mac1609_4 	TooLittleTime 	0
scalar MyScenario.node[147].nic.mac1609_4 	TimesIntoBackoff 	0
scalar MyScenario.node[147].nic.mac1609_4 	SlotsBackoff 	0
scalar MyScenario.node[147].nic.mac1609_4 	NumInternalContention 	0
scalar MyScenario.node[147].nic.mac1609_4 	totalBusyTime 	0
scalar MyScenario.node[147].veinsmobility 	startTime 	1
scalar MyScenario.node[147].veinsmobility 	totalTime 	126
scalar MyScenario.node[147].veinsmobility 	stopTime 	128
scalar MyScenario.node[147].veinsmobility 	minSpeed 	1.7706629661378
scalar MyScenario.node[147].veinsmobility 	maxSpeed 	13.887397775776
scalar MyScenario.node[147].veinsmobility 	totalDistance 	1564.3020311709
scalar MyScenario.node[147].veinsmobility 	totalCO2Emission 	351.40622056179
scalar MyScenario.node[98].appl 	generatedWSMs 	1
scalar MyScenario.node[98].appl 	receivedWSMs 	10
scalar MyScenario.node[98].appl 	generatedBSMs 	0
scalar MyScenario.node[98].appl 	receivedBSMs 	0
scalar MyScenario.node[98].appl 	generatedWSAs 	0
scalar MyScenario.node[98].appl 	receivedWSAs 	0
scalar MyScenario.node[98].nic.phy80211p 	busyTime 	2.6976744186047e-05
scalar MyScenario.node[98].nic.mac1609_4 	ReceivedUnicastPackets 	0
scalar MyScenario.node[98].nic.mac1609_4 	ReceivedBroadcasts 	10
scalar MyScenario.node[98].nic.mac1609_4 	SentPackets 	1
scalar MyScenario.node[98].nic.mac1609_4 	SNIRLostPackets 	5
scalar MyScenario.node[98].nic.mac1609_4 	RXTXLostPackets 	8
scalar MyScenario.node[98].nic.mac1609_4 	TotalLostPackets 	13
scalar MyScenario.node[98].nic.mac1609_4 	DroppedPacketsInMac 	0
scalar MyScenario.node[98].nic.mac1609_4 	TooLittleTime 	0
scalar MyScenario.node[98].nic.mac1609_4 	TimesIntoBackoff 	1
scalar MyScenario.node[98].nic.mac1609_4 	SlotsBackoff 	0
scalar MyScenario.node[98].nic.mac1609_4 	NumInternalContention 	0
scalar MyScenario.node[98].nic.mac1609_4 	totalBusyTime 	0.003017
scalar MyScenario.node[98].veinsmobility 	startTime 	1
scalar MyScenario.node[98].veinsmobility 	totalTime 	128
scalar MyScenario.node[98].veinsmobility 	stopTime 	130
scalar MyScenario.node[98].veinsmobility 	minSpeed 	0.53566606593713
scalar MyScenario.node[98].veinsmobility 	maxSpeed 	13.869356077677
scalar MyScenario.node[98].veinsmobility 	totalDistance 	1469.5236456285
scalar MyScenario.node[98].veinsmobility 	totalCO2Emission 	406.01392130502
scalar MyScenario.node[12].appl 	generatedWSMs 	1
scalar MyScenario.node[12].appl 	receivedWSMs 	1
scalar MyScenario.node[12].appl 	generatedBSMs 	0
scalar MyScenario.node[12].appl 	receivedBSMs 	0
scalar MyScenario.node[12].appl 	generatedWSAs 	0
scalar MyScenario.node[12].appl 	receivedWSAs 	0
scalar MyScenario.node[12].nic.phy80211p 	busyTime 	7.1937984496124e-06
scalar MyScenario.node[12].nic.mac1609_4 	ReceivedUnicastPackets 	0
scalar MyScenario.node[12].nic.mac1609_4 	ReceivedBroadcasts 	1
scalar MyScenario.node[12].nic.mac1609_4 	SentPackets 	1
scalar MyScenario.node[12].nic.mac1609_4 	SNIRLostPackets 	3
scalar MyScenario.node[12].nic.mac1609_4 	RXTXLostPackets 	9
scalar MyScenario.node[12].nic.mac1609_4 	TotalLostPackets 	12
scalar MyScenario.node[12].nic.mac1609_4 	DroppedPacketsInMac 	0
scalar MyScenario.node[12].nic.mac1609_4 	TooLittleTime 	0
scalar MyScenario.node[12].nic.mac1609_4 	TimesIntoBackoff 	1
scalar MyScenario.node[12].nic.mac1609_4 	SlotsBackoff 	1
scalar MyScenario.node[12].nic.mac1609_4 	NumInternalContention 	0
scalar MyScenario.node[12].nic.mac1609_4 	totalBusyTime 	0.000929
scalar MyScenario.node[12].veinsmobility 	startTime 	1
scalar MyScenario.node[12].veinsmobility 	totalTime 	128
scalar MyScenario.node[12].veinsmobility 	stopTime 	130
scalar MyScenario.node[12].veinsmobility 	minSpeed 	1.6049074374605
scalar MyScenario.node[12].veinsmobility 	maxSpeed 	13.88755410749
scalar MyScenario.node[12].veinsmobility 	totalDistance 	1467.4085201867
scalar MyScenario.node[12].veinsmobility 	totalCO2Emission 	411.52263300323
scalar MyScenario.node[138].appl 	generatedWSMs 	1
scalar MyScenario.node[138].appl 	receivedWSMs 	1
scalar MyScenario.node[138].appl 	generatedBSMs 	0
scalar MyScenario.node[138].appl 	receivedBSMs 	0
scalar MyScenario.node[138].appl 	generatedWSAs 	0
scalar MyScenario.node[138].appl 	receivedWSAs 	0
scalar MyScenario.node[138].nic.phy80211p 	busyTime 	8.8549618320611e-06
scalar MyScenario.node[138].nic.mac1609_4 	ReceivedUnicastPackets 	0
scalar MyScenario.node[138].nic.mac1609_4 	ReceivedBroadcasts 	1
scalar MyScenario.node[138].nic.mac1609_4 	SentPackets 	1
scalar MyScenario.node[138].nic.mac1609_4 	SNIRLostPackets 	4
scalar MyScenario.node[138].nic.mac1609_4 	RXTXLostPackets 	5
scalar MyScenario.node[138].nic.mac1609_4 	TotalLostPackets 	9
scalar MyScenario.node[138].nic.mac1609_4 	DroppedPacketsInMac 	0
scalar MyScenario.node[138].nic.mac1609_4 	TooLittleTime 	0
scalar MyScenario.node[138].nic.mac1609_4 	TimesIntoBackoff 	1
scalar MyScenario.node[138].nic.mac1609_4 	SlotsBackoff 	0
scalar MyScenario.node[138].nic.mac1609_4 	NumInternalContention 	0
scalar MyScenario.node[138].nic.mac1609_4 	totalBusyTime 	0.00069713085
scalar MyScenario.node[138].veinsmobility 	startTime 	1
scalar MyScenario.node[138].veinsmobility 	totalTime 	130
scalar MyScenario.node[138].veinsmobility 	stopTime 	132
scalar MyScenario.node[138].veinsmobility 	minSpeed 	0.0047462383959222
scalar MyScenario.node[138].veinsmobility 	maxSpeed 	13.895460067596
scalar MyScenario.node[138].veinsmobility 	totalDistance 	1265.2273427317
scalar MyScenario.node[138].veinsmobility 	totalCO2Emission 	447.73433568296
scalar MyScenario.node[47].appl 	generatedWSMs 	1
scalar MyScenario.node[47].appl 	receivedWSMs 	7
scalar MyScenario.node[47].appl 	generatedBSMs 	0
scalar MyScenario.node[47].appl 	receivedBSMs 	0
scalar MyScenario.node[47].appl 	generatedWSAs 	0
scalar MyScenario.node[47].appl 	receivedWSAs 	0
scalar MyScenario.node[47].nic.phy80211p 	busyTime 	4.6746268656716e-05
scalar MyScenario.node[47].nic.mac1609_4 	ReceivedUnicastPackets 	0
scalar MyScenario.node[47].nic.mac1609_4 	ReceivedBroadcasts 	7
scalar MyScenario.node[47].nic.mac1609_4 	SentPackets 	1
scalar MyScenario.node[47].nic.mac1609_4 	SNIRLostPackets 	20
scalar MyScenario.node[47].nic.mac1609_4 	RXTXLostPackets 	8
scalar MyScenario.node[47].nic.mac1609_4 	TotalLostPackets 	28
scalar MyScenario.node[47].nic.mac1609_4 	DroppedPacketsInMac 	0
scalar MyScenario.node[47].nic.mac1609_4 	TooLittleTime 	0
scalar MyScenario.node[47].nic.mac1609_4 	TimesIntoBackoff 	1
scalar MyScenario.node[47].nic.mac1609_4 	SlotsBackoff 	3
scalar MyScenario.node[47].nic.mac1609_4 	NumInternalContention 	0
scalar MyScenario.node[47].nic.mac1609_4 	totalBusyTime 	0.00324910909
scalar MyScenario.node[47].veinsmobility 	startTime 	1
scalar MyScenario.node[47].veinsmobility 	totalTime 	133
scalar MyScenario.node[47].veinsmobility 	stopTime 	135
scalar MyScenario.node[47].veinsmobility 	minSpeed 	0.021298647367001
scalar MyScenario.node[47].veinsmobility 	maxSpeed 	13.891179654398
scalar MyScenario.node[47].veinsmobility 	totalDistance 	1268.8512921098
scalar MyScenario.node[47].veinsmobility 	totalCO2Emission 	399.99545410599
scalar MyScenario.node[71].appl 	generatedWSMs 	0
scalar MyScenario.node[71].appl 	receivedWSMs 	0
scalar MyScenario.node[71].appl 	generatedBSMs 	0
scalar MyScenario.node[71].appl 	receivedBSMs 	0
scalar MyScenario.node[71].appl 	generatedWSAs 	0
scalar MyScenario.node[71].appl 	receivedWSAs 	0
scalar MyScenario.node[71].nic.phy80211p 	busyTime 	5.0802919708029e-06
scalar MyScenario.node[71].nic.mac1609_4 	ReceivedUnicastPackets 	0
scalar MyScenario.node[71].nic.mac1609_4 	ReceivedBroadcasts 	0
scalar MyScenario.node[71].nic.mac1609_4 	SentPackets 	0
scalar MyScenario.node[71].nic.mac1609_4 	SNIRLostPackets 	3
scalar MyScenario.node[71].nic.mac1609_4 	RXTXLostPackets 	0
scalar MyScenario.node[71].nic.mac1609_4 	TotalLostPackets 	3
scalar MyScenario.node[71].nic.mac1609_4 	DroppedPacketsInMac 	0
scalar MyScenario.node[71].nic.mac1609_4 	TooLittleTime 	0
scalar MyScenario.node[71].nic.mac1609_4 	TimesIntoBackoff 	0
scalar MyScenario.node[71].nic.mac1609_4 	SlotsBackoff 	0
scalar MyScenario.node[71].nic.mac1609_4 	NumInternalContention 	0
scalar MyScenario.node[71].nic.mac1609_4 	totalBusyTime 	0.000232
scalar MyScenario.node[71].veinsmobility 	startTime 	1
scalar MyScenario.node[71].veinsmobility 	totalTime 	136
scalar MyScenario.node[71].veinsmobility 	stopTime 	138
scalar MyScenario.node[71].veinsmobility 	minSpeed 	2.1157240657136
scalar MyScenario.node[71].veinsmobility 	maxSpeed 	13.897050280566
scalar MyScenario.node[71].veinsmobility 	totalDistance 	1568.657775145
scalar MyScenario.node[71].veinsmobility 	totalCO2Emission 	449.82744449571
scalar MyScenario.node[189].appl 	generatedWSMs 	0
scalar MyScenario.node[189].appl 	receivedWSMs 	0
scalar MyScenario.node[189].appl 	generatedBSMs 	0
scalar MyScenario.node[189].appl 	receivedBSMs 	0
scalar MyScenario.node[189].appl 	generatedWSAs 	0
scalar MyScenario.node[189].appl 	receivedWSAs 	0
scalar MyScenario.node[189].nic.phy80211p 	busyTime 	0
scalar MyScenario.node[189].nic.mac1609_4 	ReceivedUnicastPackets 	0
scalar MyScenario.node[189].nic.mac1609_4 	ReceivedBroadcasts 	0
scalar MyScenario.node[189].nic.mac1609_4 	SentPackets 	0
scalar MyScenario.node[189].nic.mac1609_4 	SNIRLostPackets 	0
scalar MyScenario.node[189].nic.mac1609_4 	RXTXLostPackets 	0
scalar MyScenario.node[189].nic.mac1609_4 	TotalLostPackets 	0
scalar MyScenario.node[189].nic.mac1609_4 	DroppedPacketsInMac 	0
scalar MyScenario.node[189].nic.mac1609_4 	TooLittleTime 	0
scalar MyScenario.node[189].nic.mac1609_4 	TimesIntoBackoff 	0
scalar MyScenario.node[189].nic.mac1609_4 	SlotsBackoff 	0
scalar MyScenario.node[189].nic.mac1609_4 	NumInternalContention 	0
scalar MyScenario.node[189].nic.mac1609_4 	totalBusyTime 	0
scalar MyScenario.node[189].veinsmobility 	startTime 	4
scalar MyScenario.node[189].veinsmobility 	totalTime 	142
scalar MyScenario.node[189].veinsmobility 	stopTime 	147
scalar MyScenario.node[189].veinsmobility 	minSpeed 	1.4522433664578e-10
scalar MyScenario.node[189].veinsmobility 	maxSpeed 	13.887692142813
scalar MyScenario.node[189].veinsmobility 	totalDistance 	1369.1458464669
scalar MyScenario.node[189].veinsmobility 	totalCO2Emission 	434.29559466812
scalar MyScenario.node[180].appl 	generatedWSMs 	0
scalar MyScenario.node[180].appl 	receivedWSMs 	0
scalar MyScenario.node[180].appl 	generatedBSMs 	0
scalar MyScenario.node[180].appl 	receivedBSMs 	0
scalar MyScenario.node[180].appl 	generatedWSAs 	0
scalar MyScenario.node[180].appl 	receivedWSAs 	0
scalar MyScenario.node[180].nic.phy80211p 	busyTime 	0
scalar MyScenario.node[180].nic.mac1609_4 	ReceivedUnicastPackets 	0
scalar MyScenario.node[180].nic.mac1609_4 	ReceivedBroadcasts 	0
scalar MyScenario.node[180].nic.mac1609_4 	SentPackets 	0
scalar MyScenario.node[180].nic.mac1609_4 	SNIRLostPackets 	0
scalar MyScenario.node[180].nic.mac1609_4 	RXTXLostPackets 	0
scalar MyScenario.node[180].nic.mac1609_4 	TotalLostPackets 	0
scalar MyScenario.node[180].nic.mac1609_4 	DroppedPacketsInMac 	0
scalar MyScenario.node[180].nic.mac1609_4 	TooLittleTime 	0
scalar MyScenario.node[180].nic.mac1609_4 	TimesIntoBackoff 	0
scalar MyScenario.node[180].nic.mac1609_4 	SlotsBackoff 	0
scalar MyScenario.node[180].nic.mac1609_4 	NumInternalContention 	0
scalar MyScenario.node[180].nic.mac1609_4 	totalBusyTime 	0
scalar MyScenario.node[180].veinsmobility 	startTime 	4
scalar MyScenario.node[180].veinsmobility 	totalTime 	146
scalar MyScenario.node[180].veinsmobility 	stopTime 	151
scalar MyScenario.node[180].veinsmobility 	minSpeed 	2.1988537265686
scalar MyScenario.node[180].veinsmobility 	maxSpeed 	13.899302800605
scalar MyScenario.node[180].veinsmobility 	totalDistance 	1676.795800234
scalar MyScenario.node[180].veinsmobility 	totalCO2Emission 	470.36881613505
scalar MyScenario.node[66].appl 	generatedWSMs 	0
scalar MyScenario.node[66].appl 	receivedWSMs 	0
scalar MyScenario.node[66].appl 	generatedBSMs 	0
scalar MyScenario.node[66].appl 	receivedBSMs 	0
scalar MyScenario.node[66].appl 	generatedWSAs 	0
scalar MyScenario.node[66].appl 	receivedWSAs 	0
scalar MyScenario.node[66].nic.phy80211p 	busyTime 	8.8101265822785e-06
scalar MyScenario.node[66].nic.mac1609_4 	ReceivedUnicastPackets 	0
scalar MyScenario.node[66].nic.mac1609_4 	ReceivedBroadcasts 	0
scalar MyScenario.node[66].nic.mac1609_4 	SentPackets 	0
scalar MyScenario.node[66].nic.mac1609_4 	SNIRLostPackets 	6
scalar MyScenario.node[66].nic.mac1609_4 	RXTXLostPackets 	0
scalar MyScenario.node[66].nic.mac1609_4 	TotalLostPackets 	6
scalar MyScenario.node[66].nic.mac1609_4 	DroppedPacketsInMac 	0
scalar MyScenario.node[66].nic.mac1609_4 	TooLittleTime 	0
scalar MyScenario.node[66].nic.mac1609_4 	TimesIntoBackoff 	0
scalar MyScenario.node[66].nic.mac1609_4 	SlotsBackoff 	0
scalar MyScenario.node[66].nic.mac1609_4 	NumInternalContention 	0
scalar MyScenario.node[66].nic.mac1609_4 	totalBusyTime 	0.000464
scalar MyScenario.node[66].veinsmobility 	startTime 	1
scalar MyScenario.node[66].veinsmobility 	totalTime 	157
scalar MyScenario.node[66].veinsmobility 	stopTime 	159
scalar MyScenario.node[66].veinsmobility 	minSpeed 	0.0015550575886545
scalar MyScenario.node[66].veinsmobility 	maxSpeed 	13.88509777647
scalar MyScenario.node[66].veinsmobility 	totalDistance 	1678.9333609449
scalar MyScenario.node[66].veinsmobility 	totalCO2Emission 	493.25030110473
