version 2
run General-31-20170829-17:46:23-8100
attr configname General
attr datetime 20170829-17:46:23
attr density 400
attr experiment General
attr inifile omnetpp.ini
attr iterationvars $density=400
attr iterationvars2 "$density=400, $repetition=1"
attr measurement $density=400
attr network com.liborio.pi.MyScenario
attr processid 8100
attr repetition 1
attr replication #1
attr resultdir results
attr runnumber 31
attr seedset 1
param **.coreDebug false
param **.debug false
param *.**.nic.mac1609_4.bitrate 6Mbps
param *.**.nic.mac1609_4.txPower 20mW
param *.**.nic.mac1609_4.useServiceChannel true
param *.**.nic.phy80211p.analogueModels "xmldoc(\"config.xml\")"
param *.**.nic.phy80211p.antenna "xmldoc(\"antenna.xml\", \"/root/Antenna[@id='monopole']\")"
param *.**.nic.phy80211p.decider "xmldoc(\"config.xml\")"
param *.**.nic.phy80211p.sensitivity -84.39dBm
param *.**.nic.phy80211p.thermalNoise -110dBm
param *.**.nic.phy80211p.usePropagationDelay true
param *.**.nic.phy80211p.useThermalNoise true
param *.annotations.draw true
param *.connectionManager.drawMaxIntfDist false
param *.connectionManager.maxInterfDist 2600m
param *.connectionManager.sendDirect true
param *.manager.autoShutdown true
param *.manager.host "\"localhost\""
param *.manager.launchConfig "xmldoc(string(${density = 100, 200, 300, 400})+\"_\"+ string(${repetition})+\".launchd.xml\")"
param *.manager.port 9999
param *.manager.updateInterval 1s
param *.node[*].appl.beaconInterval 1s
param *.node[*].appl.dataOnSch true
param *.node[*].appl.headerLength "80 bit"
param *.node[*].appl.isSource false
param *.node[*].appl.numMsgs 100
param *.node[*].appl.sendBeacons false
param *.node[*].appl.stopTrafficTime 130s
param *.node[*].appl.wsmInterval 3s
param *.node[*].applType "\"Flooding\""
param *.node[*].veinsmobility.x 0
param *.node[*].veinsmobility.y 0
param *.node[*].veinsmobility.z 1.895
param *.node[*].veinsmobilityType.debug true
param *.node[0].appl.isSource true
param *.playgroundSizeX 2500m
param *.playgroundSizeY 2500m
param *.playgroundSizeZ 50m

scalar . 	density 	400
scalar MyScenario.node[40].appl 	generatedWSMs 	1
scalar MyScenario.node[40].appl 	receivedWSMs 	3
scalar MyScenario.node[40].appl 	generatedBSMs 	0
scalar MyScenario.node[40].appl 	receivedBSMs 	0
scalar MyScenario.node[40].appl 	generatedWSAs 	0
scalar MyScenario.node[40].appl 	receivedWSAs 	0
scalar MyScenario.node[40].nic.phy80211p 	busyTime 	0.0009048
scalar MyScenario.node[40].nic.mac1609_4 	ReceivedUnicastPackets 	0
scalar MyScenario.node[40].nic.mac1609_4 	ReceivedBroadcasts 	3
scalar MyScenario.node[40].nic.mac1609_4 	SentPackets 	1
scalar MyScenario.node[40].nic.mac1609_4 	SNIRLostPackets 	36
scalar MyScenario.node[40].nic.mac1609_4 	RXTXLostPackets 	21
scalar MyScenario.node[40].nic.mac1609_4 	TotalLostPackets 	57
scalar MyScenario.node[40].nic.mac1609_4 	DroppedPacketsInMac 	0
scalar MyScenario.node[40].nic.mac1609_4 	TooLittleTime 	0
scalar MyScenario.node[40].nic.mac1609_4 	TimesIntoBackoff 	1
scalar MyScenario.node[40].nic.mac1609_4 	SlotsBackoff 	0
scalar MyScenario.node[40].nic.mac1609_4 	NumInternalContention 	0
scalar MyScenario.node[40].nic.mac1609_4 	totalBusyTime 	0.001857198135
scalar MyScenario.node[40].veinsmobility 	startTime 	1
scalar MyScenario.node[40].veinsmobility 	totalTime 	9
scalar MyScenario.node[40].veinsmobility 	stopTime 	11
scalar MyScenario.node[40].veinsmobility 	minSpeed 	2.1577552263392
scalar MyScenario.node[40].veinsmobility 	maxSpeed 	13.664890811965
scalar MyScenario.node[40].veinsmobility 	totalDistance 	81.515217776713
scalar MyScenario.node[40].veinsmobility 	totalCO2Emission 	37.554960618095
scalar MyScenario.node[116].appl 	generatedWSMs 	0
scalar MyScenario.node[116].appl 	receivedWSMs 	0
scalar MyScenario.node[116].appl 	generatedBSMs 	0
scalar MyScenario.node[116].appl 	receivedBSMs 	0
scalar MyScenario.node[116].appl 	generatedWSAs 	0
scalar MyScenario.node[116].appl 	receivedWSAs 	0
scalar MyScenario.node[116].nic.phy80211p 	busyTime 	0
scalar MyScenario.node[116].nic.mac1609_4 	ReceivedUnicastPackets 	0
scalar MyScenario.node[116].nic.mac1609_4 	ReceivedBroadcasts 	0
scalar MyScenario.node[116].nic.mac1609_4 	SentPackets 	0
scalar MyScenario.node[116].nic.mac1609_4 	SNIRLostPackets 	0
scalar MyScenario.node[116].nic.mac1609_4 	RXTXLostPackets 	0
scalar MyScenario.node[116].nic.mac1609_4 	TotalLostPackets 	0
scalar MyScenario.node[116].nic.mac1609_4 	DroppedPacketsInMac 	0
scalar MyScenario.node[116].nic.mac1609_4 	TooLittleTime 	0
scalar MyScenario.node[116].nic.mac1609_4 	TimesIntoBackoff 	0
scalar MyScenario.node[116].nic.mac1609_4 	SlotsBackoff 	0
scalar MyScenario.node[116].nic.mac1609_4 	NumInternalContention 	0
scalar MyScenario.node[116].nic.mac1609_4 	totalBusyTime 	0
scalar MyScenario.node[116].veinsmobility 	startTime 	1
scalar MyScenario.node[116].veinsmobility 	totalTime 	9
scalar MyScenario.node[116].veinsmobility 	stopTime 	11
scalar MyScenario.node[116].veinsmobility 	minSpeed 	2.5037421563407
scalar MyScenario.node[116].veinsmobility 	maxSpeed 	13.535330865951
scalar MyScenario.node[116].veinsmobility 	totalDistance 	84.765901096188
scalar MyScenario.node[116].veinsmobility 	totalCO2Emission 	37.84735479609
scalar MyScenario.node[180].appl 	generatedWSMs 	0
scalar MyScenario.node[180].appl 	receivedWSMs 	0
scalar MyScenario.node[180].appl 	generatedBSMs 	0
scalar MyScenario.node[180].appl 	receivedBSMs 	0
scalar MyScenario.node[180].appl 	generatedWSAs 	0
scalar MyScenario.node[180].appl 	receivedWSAs 	0
scalar MyScenario.node[180].nic.phy80211p 	busyTime 	0
scalar MyScenario.node[180].nic.mac1609_4 	ReceivedUnicastPackets 	0
scalar MyScenario.node[180].nic.mac1609_4 	ReceivedBroadcasts 	0
scalar MyScenario.node[180].nic.mac1609_4 	SentPackets 	0
scalar MyScenario.node[180].nic.mac1609_4 	SNIRLostPackets 	0
scalar MyScenario.node[180].nic.mac1609_4 	RXTXLostPackets 	0
scalar MyScenario.node[180].nic.mac1609_4 	TotalLostPackets 	0
scalar MyScenario.node[180].nic.mac1609_4 	DroppedPacketsInMac 	0
scalar MyScenario.node[180].nic.mac1609_4 	TooLittleTime 	0
scalar MyScenario.node[180].nic.mac1609_4 	TimesIntoBackoff 	0
scalar MyScenario.node[180].nic.mac1609_4 	SlotsBackoff 	0
scalar MyScenario.node[180].nic.mac1609_4 	NumInternalContention 	0
scalar MyScenario.node[180].nic.mac1609_4 	totalBusyTime 	0
scalar MyScenario.node[180].veinsmobility 	startTime 	1
scalar MyScenario.node[180].veinsmobility 	totalTime 	9
scalar MyScenario.node[180].veinsmobility 	stopTime 	11
scalar MyScenario.node[180].veinsmobility 	minSpeed 	2.2529223483754
scalar MyScenario.node[180].veinsmobility 	maxSpeed 	13.857905369229
scalar MyScenario.node[180].veinsmobility 	totalDistance 	84.705415833765
scalar MyScenario.node[180].veinsmobility 	totalCO2Emission 	38.556710642945
scalar MyScenario.node[144].appl 	generatedWSMs 	0
scalar MyScenario.node[144].appl 	receivedWSMs 	0
scalar MyScenario.node[144].appl 	generatedBSMs 	0
scalar MyScenario.node[144].appl 	receivedBSMs 	0
scalar MyScenario.node[144].appl 	generatedWSAs 	0
scalar MyScenario.node[144].appl 	receivedWSAs 	0
scalar MyScenario.node[144].nic.phy80211p 	busyTime 	0
scalar MyScenario.node[144].nic.mac1609_4 	ReceivedUnicastPackets 	0
scalar MyScenario.node[144].nic.mac1609_4 	ReceivedBroadcasts 	0
scalar MyScenario.node[144].nic.mac1609_4 	SentPackets 	0
scalar MyScenario.node[144].nic.mac1609_4 	SNIRLostPackets 	0
scalar MyScenario.node[144].nic.mac1609_4 	RXTXLostPackets 	0
scalar MyScenario.node[144].nic.mac1609_4 	TotalLostPackets 	0
scalar MyScenario.node[144].nic.mac1609_4 	DroppedPacketsInMac 	0
scalar MyScenario.node[144].nic.mac1609_4 	TooLittleTime 	0
scalar MyScenario.node[144].nic.mac1609_4 	TimesIntoBackoff 	0
scalar MyScenario.node[144].nic.mac1609_4 	SlotsBackoff 	0
scalar MyScenario.node[144].nic.mac1609_4 	NumInternalContention 	0
scalar MyScenario.node[144].nic.mac1609_4 	totalBusyTime 	0
scalar MyScenario.node[144].veinsmobility 	startTime 	1
scalar MyScenario.node[144].veinsmobility 	totalTime 	9
scalar MyScenario.node[144].veinsmobility 	stopTime 	11
scalar MyScenario.node[144].veinsmobility 	minSpeed 	1.5225700574229
scalar MyScenario.node[144].veinsmobility 	maxSpeed 	13.802494026977
scalar MyScenario.node[144].veinsmobility 	totalDistance 	86.680780487936
scalar MyScenario.node[144].veinsmobility 	totalCO2Emission 	38.519456127986
scalar MyScenario.node[129].appl 	generatedWSMs 	0
scalar MyScenario.node[129].appl 	receivedWSMs 	0
scalar MyScenario.node[129].appl 	generatedBSMs 	0
scalar MyScenario.node[129].appl 	receivedBSMs 	0
scalar MyScenario.node[129].appl 	generatedWSAs 	0
scalar MyScenario.node[129].appl 	receivedWSAs 	0
scalar MyScenario.node[129].nic.phy80211p 	busyTime 	0
scalar MyScenario.node[129].nic.mac1609_4 	ReceivedUnicastPackets 	0
scalar MyScenario.node[129].nic.mac1609_4 	ReceivedBroadcasts 	0
scalar MyScenario.node[129].nic.mac1609_4 	SentPackets 	0
scalar MyScenario.node[129].nic.mac1609_4 	SNIRLostPackets 	0
scalar MyScenario.node[129].nic.mac1609_4 	RXTXLostPackets 	0
scalar MyScenario.node[129].nic.mac1609_4 	TotalLostPackets 	0
scalar MyScenario.node[129].nic.mac1609_4 	DroppedPacketsInMac 	0
scalar MyScenario.node[129].nic.mac1609_4 	TooLittleTime 	0
scalar MyScenario.node[129].nic.mac1609_4 	TimesIntoBackoff 	0
scalar MyScenario.node[129].nic.mac1609_4 	SlotsBackoff 	0
scalar MyScenario.node[129].nic.mac1609_4 	NumInternalContention 	0
scalar MyScenario.node[129].nic.mac1609_4 	totalBusyTime 	0
scalar MyScenario.node[129].veinsmobility 	startTime 	1
scalar MyScenario.node[129].veinsmobility 	totalTime 	9
scalar MyScenario.node[129].veinsmobility 	stopTime 	11
scalar MyScenario.node[129].veinsmobility 	minSpeed 	2.4517861565575
scalar MyScenario.node[129].veinsmobility 	maxSpeed 	13.536149959359
scalar MyScenario.node[129].veinsmobility 	totalDistance 	83.022407116531
scalar MyScenario.node[129].veinsmobility 	totalCO2Emission 	36.869390320959
scalar MyScenario.node[167].appl 	generatedWSMs 	0
scalar MyScenario.node[167].appl 	receivedWSMs 	0
scalar MyScenario.node[167].appl 	generatedBSMs 	0
scalar MyScenario.node[167].appl 	receivedBSMs 	0
scalar MyScenario.node[167].appl 	generatedWSAs 	0
scalar MyScenario.node[167].appl 	receivedWSAs 	0
scalar MyScenario.node[167].nic.phy80211p 	busyTime 	0
scalar MyScenario.node[167].nic.mac1609_4 	ReceivedUnicastPackets 	0
scalar MyScenario.node[167].nic.mac1609_4 	ReceivedBroadcasts 	0
scalar MyScenario.node[167].nic.mac1609_4 	SentPackets 	0
scalar MyScenario.node[167].nic.mac1609_4 	SNIRLostPackets 	0
scalar MyScenario.node[167].nic.mac1609_4 	RXTXLostPackets 	0
scalar MyScenario.node[167].nic.mac1609_4 	TotalLostPackets 	0
scalar MyScenario.node[167].nic.mac1609_4 	DroppedPacketsInMac 	0
scalar MyScenario.node[167].nic.mac1609_4 	TooLittleTime 	0
scalar MyScenario.node[167].nic.mac1609_4 	TimesIntoBackoff 	0
scalar MyScenario.node[167].nic.mac1609_4 	SlotsBackoff 	0
scalar MyScenario.node[167].nic.mac1609_4 	NumInternalContention 	0
scalar MyScenario.node[167].nic.mac1609_4 	totalBusyTime 	0
scalar MyScenario.node[167].veinsmobility 	startTime 	1
scalar MyScenario.node[167].veinsmobility 	totalTime 	9
scalar MyScenario.node[167].veinsmobility 	stopTime 	11
scalar MyScenario.node[167].veinsmobility 	minSpeed 	1.3473152516875
scalar MyScenario.node[167].veinsmobility 	maxSpeed 	13.30900457052
scalar MyScenario.node[167].veinsmobility 	totalDistance 	77.128989400086
scalar MyScenario.node[167].veinsmobility 	totalCO2Emission 	37.267157552
scalar MyScenario.node[192].appl 	generatedWSMs 	0
scalar MyScenario.node[192].appl 	receivedWSMs 	0
scalar MyScenario.node[192].appl 	generatedBSMs 	0
scalar MyScenario.node[192].appl 	receivedBSMs 	0
scalar MyScenario.node[192].appl 	generatedWSAs 	0
scalar MyScenario.node[192].appl 	receivedWSAs 	0
scalar MyScenario.node[192].nic.phy80211p 	busyTime 	6.96e-05
scalar MyScenario.node[192].nic.mac1609_4 	ReceivedUnicastPackets 	0
scalar MyScenario.node[192].nic.mac1609_4 	ReceivedBroadcasts 	0
scalar MyScenario.node[192].nic.mac1609_4 	SentPackets 	0
scalar MyScenario.node[192].nic.mac1609_4 	SNIRLostPackets 	3
scalar MyScenario.node[192].nic.mac1609_4 	RXTXLostPackets 	0
scalar MyScenario.node[192].nic.mac1609_4 	TotalLostPackets 	3
scalar MyScenario.node[192].nic.mac1609_4 	DroppedPacketsInMac 	0
scalar MyScenario.node[192].nic.mac1609_4 	TooLittleTime 	0
scalar MyScenario.node[192].nic.mac1609_4 	TimesIntoBackoff 	0
scalar MyScenario.node[192].nic.mac1609_4 	SlotsBackoff 	0
scalar MyScenario.node[192].nic.mac1609_4 	NumInternalContention 	0
scalar MyScenario.node[192].nic.mac1609_4 	totalBusyTime 	0.000232
scalar MyScenario.node[192].veinsmobility 	startTime 	1
scalar MyScenario.node[192].veinsmobility 	totalTime 	9
scalar MyScenario.node[192].veinsmobility 	stopTime 	11
scalar MyScenario.node[192].veinsmobility 	minSpeed 	2.0833334282972
scalar MyScenario.node[192].veinsmobility 	maxSpeed 	13.045410852879
scalar MyScenario.node[192].veinsmobility 	totalDistance 	84.167091751541
scalar MyScenario.node[192].veinsmobility 	totalCO2Emission 	36.140575700937
scalar MyScenario.node[4].appl 	generatedWSMs 	0
scalar MyScenario.node[4].appl 	receivedWSMs 	0
scalar MyScenario.node[4].appl 	generatedBSMs 	0
scalar MyScenario.node[4].appl 	receivedBSMs 	0
scalar MyScenario.node[4].appl 	generatedWSAs 	0
scalar MyScenario.node[4].appl 	receivedWSAs 	0
scalar MyScenario.node[4].nic.phy80211p 	busyTime 	0
scalar MyScenario.node[4].nic.mac1609_4 	ReceivedUnicastPackets 	0
scalar MyScenario.node[4].nic.mac1609_4 	ReceivedBroadcasts 	0
scalar MyScenario.node[4].nic.mac1609_4 	SentPackets 	0
scalar MyScenario.node[4].nic.mac1609_4 	SNIRLostPackets 	0
scalar MyScenario.node[4].nic.mac1609_4 	RXTXLostPackets 	0
scalar MyScenario.node[4].nic.mac1609_4 	TotalLostPackets 	0
scalar MyScenario.node[4].nic.mac1609_4 	DroppedPacketsInMac 	0
scalar MyScenario.node[4].nic.mac1609_4 	TooLittleTime 	0
scalar MyScenario.node[4].nic.mac1609_4 	TimesIntoBackoff 	0
scalar MyScenario.node[4].nic.mac1609_4 	SlotsBackoff 	0
scalar MyScenario.node[4].nic.mac1609_4 	NumInternalContention 	0
scalar MyScenario.node[4].nic.mac1609_4 	totalBusyTime 	0
scalar MyScenario.node[4].veinsmobility 	startTime 	1
scalar MyScenario.node[4].veinsmobility 	totalTime 	9
scalar MyScenario.node[4].veinsmobility 	stopTime 	11
scalar MyScenario.node[4].veinsmobility 	minSpeed 	2.5005247507943
scalar MyScenario.node[4].veinsmobility 	maxSpeed 	13.219997001928
scalar MyScenario.node[4].veinsmobility 	totalDistance 	83.380559299141
scalar MyScenario.node[4].veinsmobility 	totalCO2Emission 	36.448489306957
scalar MyScenario.node[23].appl 	generatedWSMs 	0
scalar MyScenario.node[23].appl 	receivedWSMs 	0
scalar MyScenario.node[23].appl 	generatedBSMs 	0
scalar MyScenario.node[23].appl 	receivedBSMs 	0
scalar MyScenario.node[23].appl 	generatedWSAs 	0
scalar MyScenario.node[23].appl 	receivedWSAs 	0
scalar MyScenario.node[23].nic.phy80211p 	busyTime 	0
scalar MyScenario.node[23].nic.mac1609_4 	ReceivedUnicastPackets 	0
scalar MyScenario.node[23].nic.mac1609_4 	ReceivedBroadcasts 	0
scalar MyScenario.node[23].nic.mac1609_4 	SentPackets 	0
scalar MyScenario.node[23].nic.mac1609_4 	SNIRLostPackets 	0
scalar MyScenario.node[23].nic.mac1609_4 	RXTXLostPackets 	0
scalar MyScenario.node[23].nic.mac1609_4 	TotalLostPackets 	0
scalar MyScenario.node[23].nic.mac1609_4 	DroppedPacketsInMac 	0
scalar MyScenario.node[23].nic.mac1609_4 	TooLittleTime 	0
scalar MyScenario.node[23].nic.mac1609_4 	TimesIntoBackoff 	0
scalar MyScenario.node[23].nic.mac1609_4 	SlotsBackoff 	0
scalar MyScenario.node[23].nic.mac1609_4 	NumInternalContention 	0
scalar MyScenario.node[23].nic.mac1609_4 	totalBusyTime 	0
scalar MyScenario.node[23].veinsmobility 	startTime 	1
scalar MyScenario.node[23].veinsmobility 	totalTime 	9
scalar MyScenario.node[23].veinsmobility 	stopTime 	11
scalar MyScenario.node[23].veinsmobility 	minSpeed 	2.217997634504
scalar MyScenario.node[23].veinsmobility 	maxSpeed 	13.857869594893
scalar MyScenario.node[23].veinsmobility 	totalDistance 	84.620461515943
scalar MyScenario.node[23].veinsmobility 	totalCO2Emission 	39.636591917975
scalar MyScenario.node[198].appl 	generatedWSMs 	1
scalar MyScenario.node[198].appl 	receivedWSMs 	3
scalar MyScenario.node[198].appl 	generatedBSMs 	0
scalar MyScenario.node[198].appl 	receivedBSMs 	0
scalar MyScenario.node[198].appl 	generatedWSAs 	0
scalar MyScenario.node[198].appl 	receivedWSAs 	0
scalar MyScenario.node[198].nic.phy80211p 	busyTime 	0.00065381818181818
scalar MyScenario.node[198].nic.mac1609_4 	ReceivedUnicastPackets 	0
scalar MyScenario.node[198].nic.mac1609_4 	ReceivedBroadcasts 	3
scalar MyScenario.node[198].nic.mac1609_4 	SentPackets 	1
scalar MyScenario.node[198].nic.mac1609_4 	SNIRLostPackets 	28
scalar MyScenario.node[198].nic.mac1609_4 	RXTXLostPackets 	20
scalar MyScenario.node[198].nic.mac1609_4 	TotalLostPackets 	48
scalar MyScenario.node[198].nic.mac1609_4 	DroppedPacketsInMac 	0
scalar MyScenario.node[198].nic.mac1609_4 	TooLittleTime 	0
scalar MyScenario.node[198].nic.mac1609_4 	TimesIntoBackoff 	1
scalar MyScenario.node[198].nic.mac1609_4 	SlotsBackoff 	3
scalar MyScenario.node[198].nic.mac1609_4 	NumInternalContention 	0
scalar MyScenario.node[198].nic.mac1609_4 	totalBusyTime 	0.001393047026
scalar MyScenario.node[198].veinsmobility 	startTime 	1
scalar MyScenario.node[198].veinsmobility 	totalTime 	10
scalar MyScenario.node[198].veinsmobility 	stopTime 	12
scalar MyScenario.node[198].veinsmobility 	minSpeed 	1.7024028884247
scalar MyScenario.node[198].veinsmobility 	maxSpeed 	13.63116551144
scalar MyScenario.node[198].veinsmobility 	totalDistance 	84.222286170418
scalar MyScenario.node[198].veinsmobility 	totalCO2Emission 	39.196996375726
scalar MyScenario.node[173].appl 	generatedWSMs 	1
scalar MyScenario.node[173].appl 	receivedWSMs 	5
scalar MyScenario.node[173].appl 	generatedBSMs 	0
scalar MyScenario.node[173].appl 	receivedBSMs 	0
scalar MyScenario.node[173].appl 	generatedWSAs 	0
scalar MyScenario.node[173].appl 	receivedWSAs 	0
scalar MyScenario.node[173].nic.phy80211p 	busyTime 	0.00080145454545454
scalar MyScenario.node[173].nic.mac1609_4 	ReceivedUnicastPackets 	0
scalar MyScenario.node[173].nic.mac1609_4 	ReceivedBroadcasts 	5
scalar MyScenario.node[173].nic.mac1609_4 	SentPackets 	1
scalar MyScenario.node[173].nic.mac1609_4 	SNIRLostPackets 	33
scalar MyScenario.node[173].nic.mac1609_4 	RXTXLostPackets 	14
scalar MyScenario.node[173].nic.mac1609_4 	TotalLostPackets 	47
scalar MyScenario.node[173].nic.mac1609_4 	DroppedPacketsInMac 	0
scalar MyScenario.node[173].nic.mac1609_4 	TooLittleTime 	0
scalar MyScenario.node[173].nic.mac1609_4 	TimesIntoBackoff 	1
scalar MyScenario.node[173].nic.mac1609_4 	SlotsBackoff 	0
scalar MyScenario.node[173].nic.mac1609_4 	NumInternalContention 	0
scalar MyScenario.node[173].nic.mac1609_4 	totalBusyTime 	0.002321246194
scalar MyScenario.node[173].veinsmobility 	startTime 	1
scalar MyScenario.node[173].veinsmobility 	totalTime 	10
scalar MyScenario.node[173].veinsmobility 	stopTime 	12
scalar MyScenario.node[173].veinsmobility 	minSpeed 	1.6161155695096
scalar MyScenario.node[173].veinsmobility 	maxSpeed 	13.742539579328
scalar MyScenario.node[173].veinsmobility 	totalDistance 	92.502733720517
scalar MyScenario.node[173].veinsmobility 	totalCO2Emission 	40.074831061281
scalar MyScenario.node[2].appl 	generatedWSMs 	1
scalar MyScenario.node[2].appl 	receivedWSMs 	3
scalar MyScenario.node[2].appl 	generatedBSMs 	0
scalar MyScenario.node[2].appl 	receivedBSMs 	0
scalar MyScenario.node[2].appl 	generatedWSAs 	0
scalar MyScenario.node[2].appl 	receivedWSAs 	0
scalar MyScenario.node[2].nic.phy80211p 	busyTime 	0.00048509090909091
scalar MyScenario.node[2].nic.mac1609_4 	ReceivedUnicastPackets 	0
scalar MyScenario.node[2].nic.mac1609_4 	ReceivedBroadcasts 	3
scalar MyScenario.node[2].nic.mac1609_4 	SentPackets 	1
scalar MyScenario.node[2].nic.mac1609_4 	SNIRLostPackets 	20
scalar MyScenario.node[2].nic.mac1609_4 	RXTXLostPackets 	14
scalar MyScenario.node[2].nic.mac1609_4 	TotalLostPackets 	34
scalar MyScenario.node[2].nic.mac1609_4 	DroppedPacketsInMac 	0
scalar MyScenario.node[2].nic.mac1609_4 	TooLittleTime 	0
scalar MyScenario.node[2].nic.mac1609_4 	TimesIntoBackoff 	1
scalar MyScenario.node[2].nic.mac1609_4 	SlotsBackoff 	0
scalar MyScenario.node[2].nic.mac1609_4 	NumInternalContention 	0
scalar MyScenario.node[2].nic.mac1609_4 	totalBusyTime 	0.001857167096
scalar MyScenario.node[2].veinsmobility 	startTime 	1
scalar MyScenario.node[2].veinsmobility 	totalTime 	10
scalar MyScenario.node[2].veinsmobility 	stopTime 	12
scalar MyScenario.node[2].veinsmobility 	minSpeed 	1.5985931934323
scalar MyScenario.node[2].veinsmobility 	maxSpeed 	13.584796730522
scalar MyScenario.node[2].veinsmobility 	totalDistance 	85.770802726623
scalar MyScenario.node[2].veinsmobility 	totalCO2Emission 	38.399569707966
scalar MyScenario.node[128].appl 	generatedWSMs 	1
scalar MyScenario.node[128].appl 	receivedWSMs 	6
scalar MyScenario.node[128].appl 	generatedBSMs 	0
scalar MyScenario.node[128].appl 	receivedBSMs 	0
scalar MyScenario.node[128].appl 	generatedWSAs 	0
scalar MyScenario.node[128].appl 	receivedWSAs 	0
scalar MyScenario.node[128].nic.phy80211p 	busyTime 	0.00048509090909091
scalar MyScenario.node[128].nic.mac1609_4 	ReceivedUnicastPackets 	0
scalar MyScenario.node[128].nic.mac1609_4 	ReceivedBroadcasts 	6
scalar MyScenario.node[128].nic.mac1609_4 	SentPackets 	1
scalar MyScenario.node[128].nic.mac1609_4 	SNIRLostPackets 	17
scalar MyScenario.node[128].nic.mac1609_4 	RXTXLostPackets 	14
scalar MyScenario.node[128].nic.mac1609_4 	TotalLostPackets 	31
scalar MyScenario.node[128].nic.mac1609_4 	DroppedPacketsInMac 	0
scalar MyScenario.node[128].nic.mac1609_4 	TooLittleTime 	0
scalar MyScenario.node[128].nic.mac1609_4 	TimesIntoBackoff 	1
scalar MyScenario.node[128].nic.mac1609_4 	SlotsBackoff 	0
scalar MyScenario.node[128].nic.mac1609_4 	NumInternalContention 	0
scalar MyScenario.node[128].nic.mac1609_4 	totalBusyTime 	0.001857
scalar MyScenario.node[128].veinsmobility 	startTime 	1
scalar MyScenario.node[128].veinsmobility 	totalTime 	10
scalar MyScenario.node[128].veinsmobility 	stopTime 	12
scalar MyScenario.node[128].veinsmobility 	minSpeed 	1.3170689943712
scalar MyScenario.node[128].veinsmobility 	maxSpeed 	13.352236946044
scalar MyScenario.node[128].veinsmobility 	totalDistance 	88.541334332337
scalar MyScenario.node[128].veinsmobility 	totalCO2Emission 	38.816222792739
scalar MyScenario.node[310].appl 	generatedWSMs 	0
scalar MyScenario.node[310].appl 	receivedWSMs 	0
scalar MyScenario.node[310].appl 	generatedBSMs 	0
scalar MyScenario.node[310].appl 	receivedBSMs 	0
scalar MyScenario.node[310].appl 	generatedWSAs 	0
scalar MyScenario.node[310].appl 	receivedWSAs 	0
scalar MyScenario.node[310].nic.phy80211p 	busyTime 	0
scalar MyScenario.node[310].nic.mac1609_4 	ReceivedUnicastPackets 	0
scalar MyScenario.node[310].nic.mac1609_4 	ReceivedBroadcasts 	0
scalar MyScenario.node[310].nic.mac1609_4 	SentPackets 	0
scalar MyScenario.node[310].nic.mac1609_4 	SNIRLostPackets 	0
scalar MyScenario.node[310].nic.mac1609_4 	RXTXLostPackets 	0
scalar MyScenario.node[310].nic.mac1609_4 	TotalLostPackets 	0
scalar MyScenario.node[310].nic.mac1609_4 	DroppedPacketsInMac 	0
scalar MyScenario.node[310].nic.mac1609_4 	TooLittleTime 	0
scalar MyScenario.node[310].nic.mac1609_4 	TimesIntoBackoff 	0
scalar MyScenario.node[310].nic.mac1609_4 	SlotsBackoff 	0
scalar MyScenario.node[310].nic.mac1609_4 	NumInternalContention 	0
scalar MyScenario.node[310].nic.mac1609_4 	totalBusyTime 	0
scalar MyScenario.node[310].veinsmobility 	startTime 	4
scalar MyScenario.node[310].veinsmobility 	totalTime 	10
scalar MyScenario.node[310].veinsmobility 	stopTime 	15
scalar MyScenario.node[310].veinsmobility 	minSpeed 	2.4396529023536
scalar MyScenario.node[310].veinsmobility 	maxSpeed 	13.624027892587
scalar MyScenario.node[310].veinsmobility 	totalDistance 	90.706175155067
scalar MyScenario.node[310].veinsmobility 	totalCO2Emission 	39.094796570136
scalar MyScenario.node[270].appl 	generatedWSMs 	0
scalar MyScenario.node[270].appl 	receivedWSMs 	0
scalar MyScenario.node[270].appl 	generatedBSMs 	0
scalar MyScenario.node[270].appl 	receivedBSMs 	0
scalar MyScenario.node[270].appl 	generatedWSAs 	0
scalar MyScenario.node[270].appl 	receivedWSAs 	0
scalar MyScenario.node[270].nic.phy80211p 	busyTime 	0
scalar MyScenario.node[270].nic.mac1609_4 	ReceivedUnicastPackets 	0
scalar MyScenario.node[270].nic.mac1609_4 	ReceivedBroadcasts 	0
scalar MyScenario.node[270].nic.mac1609_4 	SentPackets 	0
scalar MyScenario.node[270].nic.mac1609_4 	SNIRLostPackets 	0
scalar MyScenario.node[270].nic.mac1609_4 	RXTXLostPackets 	0
scalar MyScenario.node[270].nic.mac1609_4 	TotalLostPackets 	0
scalar MyScenario.node[270].nic.mac1609_4 	DroppedPacketsInMac 	0
scalar MyScenario.node[270].nic.mac1609_4 	TooLittleTime 	0
scalar MyScenario.node[270].nic.mac1609_4 	TimesIntoBackoff 	0
scalar MyScenario.node[270].nic.mac1609_4 	SlotsBackoff 	0
scalar MyScenario.node[270].nic.mac1609_4 	NumInternalContention 	0
scalar MyScenario.node[270].nic.mac1609_4 	totalBusyTime 	0
scalar MyScenario.node[270].veinsmobility 	startTime 	4
scalar MyScenario.node[270].veinsmobility 	totalTime 	10
scalar MyScenario.node[270].veinsmobility 	stopTime 	15
scalar MyScenario.node[270].veinsmobility 	minSpeed 	2.0492225227412
scalar MyScenario.node[270].veinsmobility 	maxSpeed 	12.994077854161
scalar MyScenario.node[270].veinsmobility 	totalDistance 	92.302889694829
scalar MyScenario.node[270].veinsmobility 	totalCO2Emission 	37.900902533804
scalar MyScenario.node[388].appl 	generatedWSMs 	1
scalar MyScenario.node[388].appl 	receivedWSMs 	3
scalar MyScenario.node[388].appl 	generatedBSMs 	0
scalar MyScenario.node[388].appl 	receivedBSMs 	0
scalar MyScenario.node[388].appl 	generatedWSAs 	0
scalar MyScenario.node[388].appl 	receivedWSAs 	0
scalar MyScenario.node[388].nic.phy80211p 	busyTime 	0.00041244444444444
scalar MyScenario.node[388].nic.mac1609_4 	ReceivedUnicastPackets 	0
scalar MyScenario.node[388].nic.mac1609_4 	ReceivedBroadcasts 	3
scalar MyScenario.node[388].nic.mac1609_4 	SentPackets 	1
scalar MyScenario.node[388].nic.mac1609_4 	SNIRLostPackets 	13
scalar MyScenario.node[388].nic.mac1609_4 	RXTXLostPackets 	23
scalar MyScenario.node[388].nic.mac1609_4 	TotalLostPackets 	36
scalar MyScenario.node[388].nic.mac1609_4 	DroppedPacketsInMac 	0
scalar MyScenario.node[388].nic.mac1609_4 	TooLittleTime 	0
scalar MyScenario.node[388].nic.mac1609_4 	TimesIntoBackoff 	1
scalar MyScenario.node[388].nic.mac1609_4 	SlotsBackoff 	3
scalar MyScenario.node[388].nic.mac1609_4 	NumInternalContention 	0
scalar MyScenario.node[388].nic.mac1609_4 	totalBusyTime 	0.00185718432
scalar MyScenario.node[388].veinsmobility 	startTime 	7
scalar MyScenario.node[388].veinsmobility 	totalTime 	8
scalar MyScenario.node[388].veinsmobility 	stopTime 	16
scalar MyScenario.node[388].veinsmobility 	minSpeed 	2.3839997836854
scalar MyScenario.node[388].veinsmobility 	maxSpeed 	13.767276213691
scalar MyScenario.node[388].veinsmobility 	totalDistance 	73.067168907844
scalar MyScenario.node[388].veinsmobility 	totalCO2Emission 	35.988255267872
scalar MyScenario.node[193].appl 	generatedWSMs 	1
scalar MyScenario.node[193].appl 	receivedWSMs 	4
scalar MyScenario.node[193].appl 	generatedBSMs 	0
scalar MyScenario.node[193].appl 	receivedBSMs 	0
scalar MyScenario.node[193].appl 	generatedWSAs 	0
scalar MyScenario.node[193].appl 	receivedWSAs 	0
scalar MyScenario.node[193].nic.phy80211p 	busyTime 	0.00057317647058823
scalar MyScenario.node[193].nic.mac1609_4 	ReceivedUnicastPackets 	0
scalar MyScenario.node[193].nic.mac1609_4 	ReceivedBroadcasts 	4
scalar MyScenario.node[193].nic.mac1609_4 	SentPackets 	1
scalar MyScenario.node[193].nic.mac1609_4 	SNIRLostPackets 	38
scalar MyScenario.node[193].nic.mac1609_4 	RXTXLostPackets 	13
scalar MyScenario.node[193].nic.mac1609_4 	TotalLostPackets 	51
scalar MyScenario.node[193].nic.mac1609_4 	DroppedPacketsInMac 	0
scalar MyScenario.node[193].nic.mac1609_4 	TooLittleTime 	0
scalar MyScenario.node[193].nic.mac1609_4 	TimesIntoBackoff 	1
scalar MyScenario.node[193].nic.mac1609_4 	SlotsBackoff 	3
scalar MyScenario.node[193].nic.mac1609_4 	NumInternalContention 	0
scalar MyScenario.node[193].nic.mac1609_4 	totalBusyTime 	0.002785
scalar MyScenario.node[193].veinsmobility 	startTime 	1
scalar MyScenario.node[193].veinsmobility 	totalTime 	16
scalar MyScenario.node[193].veinsmobility 	stopTime 	18
scalar MyScenario.node[193].veinsmobility 	minSpeed 	1.6248956529424
scalar MyScenario.node[193].veinsmobility 	maxSpeed 	13.834207121027
scalar MyScenario.node[193].veinsmobility 	totalDistance 	175.2385580773
scalar MyScenario.node[193].veinsmobility 	totalCO2Emission 	54.426362346929
scalar MyScenario.node[111].appl 	generatedWSMs 	1
scalar MyScenario.node[111].appl 	receivedWSMs 	1
scalar MyScenario.node[111].appl 	generatedBSMs 	0
scalar MyScenario.node[111].appl 	receivedBSMs 	0
scalar MyScenario.node[111].appl 	generatedWSAs 	0
scalar MyScenario.node[111].appl 	receivedWSAs 	0
scalar MyScenario.node[111].nic.phy80211p 	busyTime 	0.00058682352941176
scalar MyScenario.node[111].nic.mac1609_4 	ReceivedUnicastPackets 	0
scalar MyScenario.node[111].nic.mac1609_4 	ReceivedBroadcasts 	1
scalar MyScenario.node[111].nic.mac1609_4 	SentPackets 	1
scalar MyScenario.node[111].nic.mac1609_4 	SNIRLostPackets 	42
scalar MyScenario.node[111].nic.mac1609_4 	RXTXLostPackets 	0
scalar MyScenario.node[111].nic.mac1609_4 	TotalLostPackets 	42
scalar MyScenario.node[111].nic.mac1609_4 	DroppedPacketsInMac 	0
scalar MyScenario.node[111].nic.mac1609_4 	TooLittleTime 	0
scalar MyScenario.node[111].nic.mac1609_4 	TimesIntoBackoff 	1
scalar MyScenario.node[111].nic.mac1609_4 	SlotsBackoff 	1
scalar MyScenario.node[111].nic.mac1609_4 	NumInternalContention 	0
scalar MyScenario.node[111].nic.mac1609_4 	totalBusyTime 	0.002089
scalar MyScenario.node[111].veinsmobility 	startTime 	1
scalar MyScenario.node[111].veinsmobility 	totalTime 	16
scalar MyScenario.node[111].veinsmobility 	stopTime 	18
scalar MyScenario.node[111].veinsmobility 	minSpeed 	2.5903970090905
scalar MyScenario.node[111].veinsmobility 	maxSpeed 	13.765399712208
scalar MyScenario.node[111].veinsmobility 	totalDistance 	172.08735357341
scalar MyScenario.node[111].veinsmobility 	totalCO2Emission 	50.187031518083
scalar MyScenario.node[59].appl 	generatedWSMs 	0
scalar MyScenario.node[59].appl 	receivedWSMs 	0
scalar MyScenario.node[59].appl 	generatedBSMs 	0
scalar MyScenario.node[59].appl 	receivedBSMs 	0
scalar MyScenario.node[59].appl 	generatedWSAs 	0
scalar MyScenario.node[59].appl 	receivedWSAs 	0
scalar MyScenario.node[59].nic.phy80211p 	busyTime 	0
scalar MyScenario.node[59].nic.mac1609_4 	ReceivedUnicastPackets 	0
scalar MyScenario.node[59].nic.mac1609_4 	ReceivedBroadcasts 	0
scalar MyScenario.node[59].nic.mac1609_4 	SentPackets 	0
scalar MyScenario.node[59].nic.mac1609_4 	SNIRLostPackets 	0
scalar MyScenario.node[59].nic.mac1609_4 	RXTXLostPackets 	0
scalar MyScenario.node[59].nic.mac1609_4 	TotalLostPackets 	0
scalar MyScenario.node[59].nic.mac1609_4 	DroppedPacketsInMac 	0
scalar MyScenario.node[59].nic.mac1609_4 	TooLittleTime 	0
scalar MyScenario.node[59].nic.mac1609_4 	TimesIntoBackoff 	0
scalar MyScenario.node[59].nic.mac1609_4 	SlotsBackoff 	0
scalar MyScenario.node[59].nic.mac1609_4 	NumInternalContention 	0
scalar MyScenario.node[59].nic.mac1609_4 	totalBusyTime 	0
scalar MyScenario.node[59].veinsmobility 	startTime 	1
scalar MyScenario.node[59].veinsmobility 	totalTime 	18
scalar MyScenario.node[59].veinsmobility 	stopTime 	20
scalar MyScenario.node[59].veinsmobility 	minSpeed 	2.1126245000865
scalar MyScenario.node[59].veinsmobility 	maxSpeed 	13.859189796564
scalar MyScenario.node[59].veinsmobility 	totalDistance 	179.78987853423
scalar MyScenario.node[59].veinsmobility 	totalCO2Emission 	71.134127946309
scalar MyScenario.node[1].appl 	generatedWSMs 	0
scalar MyScenario.node[1].appl 	receivedWSMs 	0
scalar MyScenario.node[1].appl 	generatedBSMs 	0
scalar MyScenario.node[1].appl 	receivedBSMs 	0
scalar MyScenario.node[1].appl 	generatedWSAs 	0
scalar MyScenario.node[1].appl 	receivedWSAs 	0
scalar MyScenario.node[1].nic.phy80211p 	busyTime 	0
scalar MyScenario.node[1].nic.mac1609_4 	ReceivedUnicastPackets 	0
scalar MyScenario.node[1].nic.mac1609_4 	ReceivedBroadcasts 	0
scalar MyScenario.node[1].nic.mac1609_4 	SentPackets 	0
scalar MyScenario.node[1].nic.mac1609_4 	SNIRLostPackets 	0
scalar MyScenario.node[1].nic.mac1609_4 	RXTXLostPackets 	0
scalar MyScenario.node[1].nic.mac1609_4 	TotalLostPackets 	0
scalar MyScenario.node[1].nic.mac1609_4 	DroppedPacketsInMac 	0
scalar MyScenario.node[1].nic.mac1609_4 	TooLittleTime 	0
scalar MyScenario.node[1].nic.mac1609_4 	TimesIntoBackoff 	0
scalar MyScenario.node[1].nic.mac1609_4 	SlotsBackoff 	0
scalar MyScenario.node[1].nic.mac1609_4 	NumInternalContention 	0
scalar MyScenario.node[1].nic.mac1609_4 	totalBusyTime 	0
scalar MyScenario.node[1].veinsmobility 	startTime 	1
scalar MyScenario.node[1].veinsmobility 	totalTime 	22
scalar MyScenario.node[1].veinsmobility 	stopTime 	24
scalar MyScenario.node[1].veinsmobility 	minSpeed 	1.2866473232084
scalar MyScenario.node[1].veinsmobility 	maxSpeed 	13.797202376788
scalar MyScenario.node[1].veinsmobility 	totalDistance 	185.69897638063
scalar MyScenario.node[1].veinsmobility 	totalCO2Emission 	82.011084612331
scalar MyScenario.node[71].appl 	generatedWSMs 	0
scalar MyScenario.node[71].appl 	receivedWSMs 	0
scalar MyScenario.node[71].appl 	generatedBSMs 	0
scalar MyScenario.node[71].appl 	receivedBSMs 	0
scalar MyScenario.node[71].appl 	generatedWSAs 	0
scalar MyScenario.node[71].appl 	receivedWSAs 	0
scalar MyScenario.node[71].nic.phy80211p 	busyTime 	0
scalar MyScenario.node[71].nic.mac1609_4 	ReceivedUnicastPackets 	0
scalar MyScenario.node[71].nic.mac1609_4 	ReceivedBroadcasts 	0
scalar MyScenario.node[71].nic.mac1609_4 	SentPackets 	0
scalar MyScenario.node[71].nic.mac1609_4 	SNIRLostPackets 	0
scalar MyScenario.node[71].nic.mac1609_4 	RXTXLostPackets 	0
scalar MyScenario.node[71].nic.mac1609_4 	TotalLostPackets 	0
scalar MyScenario.node[71].nic.mac1609_4 	DroppedPacketsInMac 	0
scalar MyScenario.node[71].nic.mac1609_4 	TooLittleTime 	0
scalar MyScenario.node[71].nic.mac1609_4 	TimesIntoBackoff 	0
scalar MyScenario.node[71].nic.mac1609_4 	SlotsBackoff 	0
scalar MyScenario.node[71].nic.mac1609_4 	NumInternalContention 	0
scalar MyScenario.node[71].nic.mac1609_4 	totalBusyTime 	0
scalar MyScenario.node[71].veinsmobility 	startTime 	1
scalar MyScenario.node[71].veinsmobility 	totalTime 	23
scalar MyScenario.node[71].veinsmobility 	stopTime 	25
scalar MyScenario.node[71].veinsmobility 	minSpeed 	2.0473646614933
scalar MyScenario.node[71].veinsmobility 	maxSpeed 	13.695542797074
scalar MyScenario.node[71].veinsmobility 	totalDistance 	272.34839673939
scalar MyScenario.node[71].veinsmobility 	totalCO2Emission 	68.926944978662
scalar MyScenario.node[414].appl 	generatedWSMs 	0
scalar MyScenario.node[414].appl 	receivedWSMs 	0
scalar MyScenario.node[414].appl 	generatedBSMs 	0
scalar MyScenario.node[414].appl 	receivedBSMs 	0
scalar MyScenario.node[414].appl 	generatedWSAs 	0
scalar MyScenario.node[414].appl 	receivedWSAs 	0
scalar MyScenario.node[414].nic.phy80211p 	busyTime 	0
scalar MyScenario.node[414].nic.mac1609_4 	ReceivedUnicastPackets 	0
scalar MyScenario.node[414].nic.mac1609_4 	ReceivedBroadcasts 	0
scalar MyScenario.node[414].nic.mac1609_4 	SentPackets 	0
scalar MyScenario.node[414].nic.mac1609_4 	SNIRLostPackets 	0
scalar MyScenario.node[414].nic.mac1609_4 	RXTXLostPackets 	0
scalar MyScenario.node[414].nic.mac1609_4 	TotalLostPackets 	0
scalar MyScenario.node[414].nic.mac1609_4 	DroppedPacketsInMac 	0
scalar MyScenario.node[414].nic.mac1609_4 	TooLittleTime 	0
scalar MyScenario.node[414].nic.mac1609_4 	TimesIntoBackoff 	0
scalar MyScenario.node[414].nic.mac1609_4 	SlotsBackoff 	0
scalar MyScenario.node[414].nic.mac1609_4 	NumInternalContention 	0
scalar MyScenario.node[414].nic.mac1609_4 	totalBusyTime 	0
scalar MyScenario.node[414].veinsmobility 	startTime 	21
scalar MyScenario.node[414].veinsmobility 	totalTime 	4
scalar MyScenario.node[414].veinsmobility 	stopTime 	26
scalar MyScenario.node[414].veinsmobility 	minSpeed 	12.704861279507
scalar MyScenario.node[414].veinsmobility 	maxSpeed 	13.311895664805
scalar MyScenario.node[414].veinsmobility 	totalDistance 	51.785623985459
scalar MyScenario.node[414].veinsmobility 	totalCO2Emission 	6.0638372867176
scalar MyScenario.node[98].appl 	generatedWSMs 	0
scalar MyScenario.node[98].appl 	receivedWSMs 	0
scalar MyScenario.node[98].appl 	generatedBSMs 	0
scalar MyScenario.node[98].appl 	receivedBSMs 	0
scalar MyScenario.node[98].appl 	generatedWSAs 	0
scalar MyScenario.node[98].appl 	receivedWSAs 	0
scalar MyScenario.node[98].nic.phy80211p 	busyTime 	8.352e-05
scalar MyScenario.node[98].nic.mac1609_4 	ReceivedUnicastPackets 	0
scalar MyScenario.node[98].nic.mac1609_4 	ReceivedBroadcasts 	0
scalar MyScenario.node[98].nic.mac1609_4 	SentPackets 	0
scalar MyScenario.node[98].nic.mac1609_4 	SNIRLostPackets 	9
scalar MyScenario.node[98].nic.mac1609_4 	RXTXLostPackets 	0
scalar MyScenario.node[98].nic.mac1609_4 	TotalLostPackets 	9
scalar MyScenario.node[98].nic.mac1609_4 	DroppedPacketsInMac 	0
scalar MyScenario.node[98].nic.mac1609_4 	TooLittleTime 	0
scalar MyScenario.node[98].nic.mac1609_4 	TimesIntoBackoff 	0
scalar MyScenario.node[98].nic.mac1609_4 	SlotsBackoff 	0
scalar MyScenario.node[98].nic.mac1609_4 	NumInternalContention 	0
scalar MyScenario.node[98].nic.mac1609_4 	totalBusyTime 	0.000696
scalar MyScenario.node[98].veinsmobility 	startTime 	1
scalar MyScenario.node[98].veinsmobility 	totalTime 	24
scalar MyScenario.node[98].veinsmobility 	stopTime 	26
scalar MyScenario.node[98].veinsmobility 	minSpeed 	2.2281300266739
scalar MyScenario.node[98].veinsmobility 	maxSpeed 	13.856024467386
scalar MyScenario.node[98].veinsmobility 	totalDistance 	279.07623361151
scalar MyScenario.node[98].veinsmobility 	totalCO2Emission 	72.389314654294
scalar MyScenario.node[403].appl 	generatedWSMs 	1
scalar MyScenario.node[403].appl 	receivedWSMs 	7
scalar MyScenario.node[403].appl 	generatedBSMs 	0
scalar MyScenario.node[403].appl 	receivedBSMs 	0
scalar MyScenario.node[403].appl 	generatedWSAs 	0
scalar MyScenario.node[403].appl 	receivedWSAs 	0
scalar MyScenario.node[403].nic.phy80211p 	busyTime 	0.00029
scalar MyScenario.node[403].nic.mac1609_4 	ReceivedUnicastPackets 	0
scalar MyScenario.node[403].nic.mac1609_4 	ReceivedBroadcasts 	7
scalar MyScenario.node[403].nic.mac1609_4 	SentPackets 	1
scalar MyScenario.node[403].nic.mac1609_4 	SNIRLostPackets 	13
scalar MyScenario.node[403].nic.mac1609_4 	RXTXLostPackets 	2
scalar MyScenario.node[403].nic.mac1609_4 	TotalLostPackets 	15
scalar MyScenario.node[403].nic.mac1609_4 	DroppedPacketsInMac 	0
scalar MyScenario.node[403].nic.mac1609_4 	TooLittleTime 	0
scalar MyScenario.node[403].nic.mac1609_4 	TimesIntoBackoff 	1
scalar MyScenario.node[403].nic.mac1609_4 	SlotsBackoff 	3
scalar MyScenario.node[403].nic.mac1609_4 	NumInternalContention 	0
scalar MyScenario.node[403].nic.mac1609_4 	totalBusyTime 	0.002553
scalar MyScenario.node[403].veinsmobility 	startTime 	12
scalar MyScenario.node[403].veinsmobility 	totalTime 	15
scalar MyScenario.node[403].veinsmobility 	stopTime 	28
scalar MyScenario.node[403].veinsmobility 	minSpeed 	6.0761660764075
scalar MyScenario.node[403].veinsmobility 	maxSpeed 	13.639778146334
scalar MyScenario.node[403].veinsmobility 	totalDistance 	179.34342956411
scalar MyScenario.node[403].veinsmobility 	totalCO2Emission 	46.75484490824
scalar MyScenario.node[106].appl 	generatedWSMs 	0
scalar MyScenario.node[106].appl 	receivedWSMs 	0
scalar MyScenario.node[106].appl 	generatedBSMs 	0
scalar MyScenario.node[106].appl 	receivedBSMs 	0
scalar MyScenario.node[106].appl 	generatedWSAs 	0
scalar MyScenario.node[106].appl 	receivedWSAs 	0
scalar MyScenario.node[106].nic.phy80211p 	busyTime 	0.00015466666666667
scalar MyScenario.node[106].nic.mac1609_4 	ReceivedUnicastPackets 	0
scalar MyScenario.node[106].nic.mac1609_4 	ReceivedBroadcasts 	0
scalar MyScenario.node[106].nic.mac1609_4 	SentPackets 	0
scalar MyScenario.node[106].nic.mac1609_4 	SNIRLostPackets 	18
scalar MyScenario.node[106].nic.mac1609_4 	RXTXLostPackets 	0
scalar MyScenario.node[106].nic.mac1609_4 	TotalLostPackets 	18
scalar MyScenario.node[106].nic.mac1609_4 	DroppedPacketsInMac 	0
scalar MyScenario.node[106].nic.mac1609_4 	TooLittleTime 	0
scalar MyScenario.node[106].nic.mac1609_4 	TimesIntoBackoff 	0
scalar MyScenario.node[106].nic.mac1609_4 	SlotsBackoff 	0
scalar MyScenario.node[106].nic.mac1609_4 	NumInternalContention 	0
scalar MyScenario.node[106].nic.mac1609_4 	totalBusyTime 	0.000696
scalar MyScenario.node[106].veinsmobility 	startTime 	1
scalar MyScenario.node[106].veinsmobility 	totalTime 	26
scalar MyScenario.node[106].veinsmobility 	stopTime 	28
scalar MyScenario.node[106].veinsmobility 	minSpeed 	2.236925722938
scalar MyScenario.node[106].veinsmobility 	maxSpeed 	13.837221393897
scalar MyScenario.node[106].veinsmobility 	totalDistance 	273.70326475787
scalar MyScenario.node[106].veinsmobility 	totalCO2Emission 	89.616383038429
scalar MyScenario.node[183].appl 	generatedWSMs 	1
scalar MyScenario.node[183].appl 	receivedWSMs 	1
scalar MyScenario.node[183].appl 	generatedBSMs 	0
scalar MyScenario.node[183].appl 	receivedBSMs 	0
scalar MyScenario.node[183].appl 	generatedWSAs 	0
scalar MyScenario.node[183].appl 	receivedWSAs 	0
scalar MyScenario.node[183].nic.phy80211p 	busyTime 	7.4571428571429e-05
scalar MyScenario.node[183].nic.mac1609_4 	ReceivedUnicastPackets 	0
scalar MyScenario.node[183].nic.mac1609_4 	ReceivedBroadcasts 	1
scalar MyScenario.node[183].nic.mac1609_4 	SentPackets 	1
scalar MyScenario.node[183].nic.mac1609_4 	SNIRLostPackets 	8
scalar MyScenario.node[183].nic.mac1609_4 	RXTXLostPackets 	10
scalar MyScenario.node[183].nic.mac1609_4 	TotalLostPackets 	18
scalar MyScenario.node[183].nic.mac1609_4 	DroppedPacketsInMac 	0
scalar MyScenario.node[183].nic.mac1609_4 	TooLittleTime 	0
scalar MyScenario.node[183].nic.mac1609_4 	TimesIntoBackoff 	1
scalar MyScenario.node[183].nic.mac1609_4 	SlotsBackoff 	2
scalar MyScenario.node[183].nic.mac1609_4 	NumInternalContention 	0
scalar MyScenario.node[183].nic.mac1609_4 	totalBusyTime 	0.001393
scalar MyScenario.node[183].veinsmobility 	startTime 	1
scalar MyScenario.node[183].veinsmobility 	totalTime 	27
scalar MyScenario.node[183].veinsmobility 	stopTime 	29
scalar MyScenario.node[183].veinsmobility 	minSpeed 	2.0538961775834
scalar MyScenario.node[183].veinsmobility 	maxSpeed 	13.781755476655
scalar MyScenario.node[183].veinsmobility 	totalDistance 	270.89004219186
scalar MyScenario.node[183].veinsmobility 	totalCO2Emission 	93.207821947161
scalar MyScenario.node[229].appl 	generatedWSMs 	1
scalar MyScenario.node[229].appl 	receivedWSMs 	8
scalar MyScenario.node[229].appl 	generatedBSMs 	0
scalar MyScenario.node[229].appl 	receivedBSMs 	0
scalar MyScenario.node[229].appl 	generatedWSAs 	0
scalar MyScenario.node[229].appl 	receivedWSAs 	0
scalar MyScenario.node[229].nic.phy80211p 	busyTime 	0.00021090909090909
scalar MyScenario.node[229].nic.mac1609_4 	ReceivedUnicastPackets 	0
scalar MyScenario.node[229].nic.mac1609_4 	ReceivedBroadcasts 	8
scalar MyScenario.node[229].nic.mac1609_4 	SentPackets 	1
scalar MyScenario.node[229].nic.mac1609_4 	SNIRLostPackets 	22
scalar MyScenario.node[229].nic.mac1609_4 	RXTXLostPackets 	17
scalar MyScenario.node[229].nic.mac1609_4 	TotalLostPackets 	39
scalar MyScenario.node[229].nic.mac1609_4 	DroppedPacketsInMac 	0
scalar MyScenario.node[229].nic.mac1609_4 	TooLittleTime 	0
scalar MyScenario.node[229].nic.mac1609_4 	TimesIntoBackoff 	1
scalar MyScenario.node[229].nic.mac1609_4 	SlotsBackoff 	2
scalar MyScenario.node[229].nic.mac1609_4 	NumInternalContention 	0
scalar MyScenario.node[229].nic.mac1609_4 	totalBusyTime 	0.003713138381
scalar MyScenario.node[229].veinsmobility 	startTime 	1
scalar MyScenario.node[229].veinsmobility 	totalTime 	32
scalar MyScenario.node[229].veinsmobility 	stopTime 	34
scalar MyScenario.node[229].veinsmobility 	minSpeed 	2.0313598724781
scalar MyScenario.node[229].veinsmobility 	maxSpeed 	13.899875826808
scalar MyScenario.node[229].veinsmobility 	totalDistance 	378.15808396051
scalar MyScenario.node[229].veinsmobility 	totalCO2Emission 	89.805843481481
scalar MyScenario.node[35].appl 	generatedWSMs 	0
scalar MyScenario.node[35].appl 	receivedWSMs 	0
scalar MyScenario.node[35].appl 	generatedBSMs 	0
scalar MyScenario.node[35].appl 	receivedBSMs 	0
scalar MyScenario.node[35].appl 	generatedWSAs 	0
scalar MyScenario.node[35].appl 	receivedWSAs 	0
scalar MyScenario.node[35].nic.phy80211p 	busyTime 	0
scalar MyScenario.node[35].nic.mac1609_4 	ReceivedUnicastPackets 	0
scalar MyScenario.node[35].nic.mac1609_4 	ReceivedBroadcasts 	0
scalar MyScenario.node[35].nic.mac1609_4 	SentPackets 	0
scalar MyScenario.node[35].nic.mac1609_4 	SNIRLostPackets 	0
scalar MyScenario.node[35].nic.mac1609_4 	RXTXLostPackets 	0
scalar MyScenario.node[35].nic.mac1609_4 	TotalLostPackets 	0
scalar MyScenario.node[35].nic.mac1609_4 	DroppedPacketsInMac 	0
scalar MyScenario.node[35].nic.mac1609_4 	TooLittleTime 	0
scalar MyScenario.node[35].nic.mac1609_4 	TimesIntoBackoff 	0
scalar MyScenario.node[35].nic.mac1609_4 	SlotsBackoff 	0
scalar MyScenario.node[35].nic.mac1609_4 	NumInternalContention 	0
scalar MyScenario.node[35].nic.mac1609_4 	totalBusyTime 	0
scalar MyScenario.node[35].veinsmobility 	startTime 	1
scalar MyScenario.node[35].veinsmobility 	totalTime 	33
scalar MyScenario.node[35].veinsmobility 	stopTime 	35
scalar MyScenario.node[35].veinsmobility 	minSpeed 	2.2794266027166
scalar MyScenario.node[35].veinsmobility 	maxSpeed 	13.890475965547
scalar MyScenario.node[35].veinsmobility 	totalDistance 	372.91773674276
scalar MyScenario.node[35].veinsmobility 	totalCO2Emission 	115.41462093454
scalar MyScenario.node[16].appl 	generatedWSMs 	0
scalar MyScenario.node[16].appl 	receivedWSMs 	0
scalar MyScenario.node[16].appl 	generatedBSMs 	0
scalar MyScenario.node[16].appl 	receivedBSMs 	0
scalar MyScenario.node[16].appl 	generatedWSAs 	0
scalar MyScenario.node[16].appl 	receivedWSAs 	0
scalar MyScenario.node[16].nic.phy80211p 	busyTime 	0
scalar MyScenario.node[16].nic.mac1609_4 	ReceivedUnicastPackets 	0
scalar MyScenario.node[16].nic.mac1609_4 	ReceivedBroadcasts 	0
scalar MyScenario.node[16].nic.mac1609_4 	SentPackets 	0
scalar MyScenario.node[16].nic.mac1609_4 	SNIRLostPackets 	0
scalar MyScenario.node[16].nic.mac1609_4 	RXTXLostPackets 	0
scalar MyScenario.node[16].nic.mac1609_4 	TotalLostPackets 	0
scalar MyScenario.node[16].nic.mac1609_4 	DroppedPacketsInMac 	0
scalar MyScenario.node[16].nic.mac1609_4 	TooLittleTime 	0
scalar MyScenario.node[16].nic.mac1609_4 	TimesIntoBackoff 	0
scalar MyScenario.node[16].nic.mac1609_4 	SlotsBackoff 	0
scalar MyScenario.node[16].nic.mac1609_4 	NumInternalContention 	0
scalar MyScenario.node[16].nic.mac1609_4 	totalBusyTime 	0
scalar MyScenario.node[16].veinsmobility 	startTime 	1
scalar MyScenario.node[16].veinsmobility 	totalTime 	33
scalar MyScenario.node[16].veinsmobility 	stopTime 	35
scalar MyScenario.node[16].veinsmobility 	minSpeed 	2.1674710499356
scalar MyScenario.node[16].veinsmobility 	maxSpeed 	13.792086733412
scalar MyScenario.node[16].veinsmobility 	totalDistance 	375.59473819904
scalar MyScenario.node[16].veinsmobility 	totalCO2Emission 	108.23699712149
scalar MyScenario.node[315].appl 	generatedWSMs 	1
scalar MyScenario.node[315].appl 	receivedWSMs 	7
scalar MyScenario.node[315].appl 	generatedBSMs 	0
scalar MyScenario.node[315].appl 	receivedBSMs 	0
scalar MyScenario.node[315].appl 	generatedWSAs 	0
scalar MyScenario.node[315].appl 	receivedWSAs 	0
scalar MyScenario.node[315].nic.phy80211p 	busyTime 	0.0001885
scalar MyScenario.node[315].nic.mac1609_4 	ReceivedUnicastPackets 	0
scalar MyScenario.node[315].nic.mac1609_4 	ReceivedBroadcasts 	7
scalar MyScenario.node[315].nic.mac1609_4 	SentPackets 	1
scalar MyScenario.node[315].nic.mac1609_4 	SNIRLostPackets 	19
scalar MyScenario.node[315].nic.mac1609_4 	RXTXLostPackets 	14
scalar MyScenario.node[315].nic.mac1609_4 	TotalLostPackets 	33
scalar MyScenario.node[315].nic.mac1609_4 	DroppedPacketsInMac 	0
scalar MyScenario.node[315].nic.mac1609_4 	TooLittleTime 	0
scalar MyScenario.node[315].nic.mac1609_4 	TimesIntoBackoff 	1
scalar MyScenario.node[315].nic.mac1609_4 	SlotsBackoff 	2
scalar MyScenario.node[315].nic.mac1609_4 	NumInternalContention 	0
scalar MyScenario.node[315].nic.mac1609_4 	totalBusyTime 	0.002553049396
scalar MyScenario.node[315].veinsmobility 	startTime 	4
scalar MyScenario.node[315].veinsmobility 	totalTime 	31
scalar MyScenario.node[315].veinsmobility 	stopTime 	36
scalar MyScenario.node[315].veinsmobility 	minSpeed 	2.2412079046946
scalar MyScenario.node[315].veinsmobility 	maxSpeed 	13.872477410827
scalar MyScenario.node[315].veinsmobility 	totalDistance 	374.05426757918
scalar MyScenario.node[315].veinsmobility 	totalCO2Emission 	92.275611197297
scalar MyScenario.node[290].appl 	generatedWSMs 	1
scalar MyScenario.node[290].appl 	receivedWSMs 	7
scalar MyScenario.node[290].appl 	generatedBSMs 	0
scalar MyScenario.node[290].appl 	receivedBSMs 	0
scalar MyScenario.node[290].appl 	generatedWSAs 	0
scalar MyScenario.node[290].appl 	receivedWSAs 	0
scalar MyScenario.node[290].nic.phy80211p 	busyTime 	0.00033435294117647
scalar MyScenario.node[290].nic.mac1609_4 	ReceivedUnicastPackets 	0
scalar MyScenario.node[290].nic.mac1609_4 	ReceivedBroadcasts 	7
scalar MyScenario.node[290].nic.mac1609_4 	SentPackets 	1
scalar MyScenario.node[290].nic.mac1609_4 	SNIRLostPackets 	42
scalar MyScenario.node[290].nic.mac1609_4 	RXTXLostPackets 	9
scalar MyScenario.node[290].nic.mac1609_4 	TotalLostPackets 	51
scalar MyScenario.node[290].nic.mac1609_4 	DroppedPacketsInMac 	0
scalar MyScenario.node[290].nic.mac1609_4 	TooLittleTime 	0
scalar MyScenario.node[290].nic.mac1609_4 	TimesIntoBackoff 	1
scalar MyScenario.node[290].nic.mac1609_4 	SlotsBackoff 	2
scalar MyScenario.node[290].nic.mac1609_4 	NumInternalContention 	0
scalar MyScenario.node[290].nic.mac1609_4 	totalBusyTime 	0.003481005048
scalar MyScenario.node[290].veinsmobility 	startTime 	4
scalar MyScenario.node[290].veinsmobility 	totalTime 	33
scalar MyScenario.node[290].veinsmobility 	stopTime 	38
scalar MyScenario.node[290].veinsmobility 	minSpeed 	1.4053694968112
scalar MyScenario.node[290].veinsmobility 	maxSpeed 	13.767062724219
scalar MyScenario.node[290].veinsmobility 	totalDistance 	367.23250180987
scalar MyScenario.node[290].veinsmobility 	totalCO2Emission 	109.58896535557
scalar MyScenario.node[236].appl 	generatedWSMs 	0
scalar MyScenario.node[236].appl 	receivedWSMs 	0
scalar MyScenario.node[236].appl 	generatedBSMs 	0
scalar MyScenario.node[236].appl 	receivedBSMs 	0
scalar MyScenario.node[236].appl 	generatedWSAs 	0
scalar MyScenario.node[236].appl 	receivedWSAs 	0
scalar MyScenario.node[236].nic.phy80211p 	busyTime 	6.4444444444444e-05
scalar MyScenario.node[236].nic.mac1609_4 	ReceivedUnicastPackets 	0
scalar MyScenario.node[236].nic.mac1609_4 	ReceivedBroadcasts 	0
scalar MyScenario.node[236].nic.mac1609_4 	SentPackets 	0
scalar MyScenario.node[236].nic.mac1609_4 	SNIRLostPackets 	10
scalar MyScenario.node[236].nic.mac1609_4 	RXTXLostPackets 	0
scalar MyScenario.node[236].nic.mac1609_4 	TotalLostPackets 	10
scalar MyScenario.node[236].nic.mac1609_4 	DroppedPacketsInMac 	0
scalar MyScenario.node[236].nic.mac1609_4 	TooLittleTime 	0
scalar MyScenario.node[236].nic.mac1609_4 	TimesIntoBackoff 	0
scalar MyScenario.node[236].nic.mac1609_4 	SlotsBackoff 	0
scalar MyScenario.node[236].nic.mac1609_4 	NumInternalContention 	0
scalar MyScenario.node[236].nic.mac1609_4 	totalBusyTime 	0.000464
scalar MyScenario.node[236].veinsmobility 	startTime 	4
scalar MyScenario.node[236].veinsmobility 	totalTime 	35
scalar MyScenario.node[236].veinsmobility 	stopTime 	40
scalar MyScenario.node[236].veinsmobility 	minSpeed 	2.4420949608088
scalar MyScenario.node[236].veinsmobility 	maxSpeed 	13.784221169259
scalar MyScenario.node[236].veinsmobility 	totalDistance 	369.58510030886
scalar MyScenario.node[236].veinsmobility 	totalCO2Emission 	122.87901878239
scalar MyScenario.node[5].appl 	generatedWSMs 	1
scalar MyScenario.node[5].appl 	receivedWSMs 	5
scalar MyScenario.node[5].appl 	generatedBSMs 	0
scalar MyScenario.node[5].appl 	receivedBSMs 	0
scalar MyScenario.node[5].appl 	generatedWSAs 	0
scalar MyScenario.node[5].appl 	receivedWSAs 	0
scalar MyScenario.node[5].nic.phy80211p 	busyTime 	0.000174
scalar MyScenario.node[5].nic.mac1609_4 	ReceivedUnicastPackets 	0
scalar MyScenario.node[5].nic.mac1609_4 	ReceivedBroadcasts 	5
scalar MyScenario.node[5].nic.mac1609_4 	SentPackets 	1
scalar MyScenario.node[5].nic.mac1609_4 	SNIRLostPackets 	25
scalar MyScenario.node[5].nic.mac1609_4 	RXTXLostPackets 	19
scalar MyScenario.node[5].nic.mac1609_4 	TotalLostPackets 	44
scalar MyScenario.node[5].nic.mac1609_4 	DroppedPacketsInMac 	0
scalar MyScenario.node[5].nic.mac1609_4 	TooLittleTime 	0
scalar MyScenario.node[5].nic.mac1609_4 	TimesIntoBackoff 	1
scalar MyScenario.node[5].nic.mac1609_4 	SlotsBackoff 	2
scalar MyScenario.node[5].nic.mac1609_4 	NumInternalContention 	0
scalar MyScenario.node[5].nic.mac1609_4 	totalBusyTime 	0.002553089458
scalar MyScenario.node[5].veinsmobility 	startTime 	1
scalar MyScenario.node[5].veinsmobility 	totalTime 	39
scalar MyScenario.node[5].veinsmobility 	stopTime 	41
scalar MyScenario.node[5].veinsmobility 	minSpeed 	0.28622246535343
scalar MyScenario.node[5].veinsmobility 	maxSpeed 	13.826587452763
scalar MyScenario.node[5].veinsmobility 	totalDistance 	381.41725923332
scalar MyScenario.node[5].veinsmobility 	totalCO2Emission 	127.92750036131
scalar MyScenario.node[146].appl 	generatedWSMs 	1
scalar MyScenario.node[146].appl 	receivedWSMs 	4
scalar MyScenario.node[146].appl 	generatedBSMs 	0
scalar MyScenario.node[146].appl 	receivedBSMs 	0
scalar MyScenario.node[146].appl 	generatedWSAs 	0
scalar MyScenario.node[146].appl 	receivedWSAs 	0
scalar MyScenario.node[146].nic.phy80211p 	busyTime 	0.00020936585365854
scalar MyScenario.node[146].nic.mac1609_4 	ReceivedUnicastPackets 	0
scalar MyScenario.node[146].nic.mac1609_4 	ReceivedBroadcasts 	4
scalar MyScenario.node[146].nic.mac1609_4 	SentPackets 	1
scalar MyScenario.node[146].nic.mac1609_4 	SNIRLostPackets 	33
scalar MyScenario.node[146].nic.mac1609_4 	RXTXLostPackets 	13
scalar MyScenario.node[146].nic.mac1609_4 	TotalLostPackets 	46
scalar MyScenario.node[146].nic.mac1609_4 	DroppedPacketsInMac 	0
scalar MyScenario.node[146].nic.mac1609_4 	TooLittleTime 	0
scalar MyScenario.node[146].nic.mac1609_4 	TimesIntoBackoff 	1
scalar MyScenario.node[146].nic.mac1609_4 	SlotsBackoff 	0
scalar MyScenario.node[146].nic.mac1609_4 	NumInternalContention 	0
scalar MyScenario.node[146].nic.mac1609_4 	totalBusyTime 	0.002553
scalar MyScenario.node[146].veinsmobility 	startTime 	1
scalar MyScenario.node[146].veinsmobility 	totalTime 	40
scalar MyScenario.node[146].veinsmobility 	stopTime 	42
scalar MyScenario.node[146].veinsmobility 	minSpeed 	1.468102568062
scalar MyScenario.node[146].veinsmobility 	maxSpeed 	13.85603607879
scalar MyScenario.node[146].veinsmobility 	totalDistance 	469.68339047164
scalar MyScenario.node[146].veinsmobility 	totalCO2Emission 	118.67751737688
scalar MyScenario.node[68].appl 	generatedWSMs 	1
scalar MyScenario.node[68].appl 	receivedWSMs 	13
scalar MyScenario.node[68].appl 	generatedBSMs 	0
scalar MyScenario.node[68].appl 	receivedBSMs 	0
scalar MyScenario.node[68].appl 	generatedWSAs 	0
scalar MyScenario.node[68].appl 	receivedWSAs 	0
scalar MyScenario.node[68].nic.phy80211p 	busyTime 	0.00037009523809524
scalar MyScenario.node[68].nic.mac1609_4 	ReceivedUnicastPackets 	0
scalar MyScenario.node[68].nic.mac1609_4 	ReceivedBroadcasts 	13
scalar MyScenario.node[68].nic.mac1609_4 	SentPackets 	1
scalar MyScenario.node[68].nic.mac1609_4 	SNIRLostPackets 	54
scalar MyScenario.node[68].nic.mac1609_4 	RXTXLostPackets 	0
scalar MyScenario.node[68].nic.mac1609_4 	TotalLostPackets 	54
scalar MyScenario.node[68].nic.mac1609_4 	DroppedPacketsInMac 	0
scalar MyScenario.node[68].nic.mac1609_4 	TooLittleTime 	0
scalar MyScenario.node[68].nic.mac1609_4 	TimesIntoBackoff 	1
scalar MyScenario.node[68].nic.mac1609_4 	SlotsBackoff 	3
scalar MyScenario.node[68].nic.mac1609_4 	NumInternalContention 	0
scalar MyScenario.node[68].nic.mac1609_4 	totalBusyTime 	0.004873
scalar MyScenario.node[68].veinsmobility 	startTime 	1
scalar MyScenario.node[68].veinsmobility 	totalTime 	41
scalar MyScenario.node[68].veinsmobility 	stopTime 	43
scalar MyScenario.node[68].veinsmobility 	minSpeed 	0.26383435603298
scalar MyScenario.node[68].veinsmobility 	maxSpeed 	13.832498791185
scalar MyScenario.node[68].veinsmobility 	totalDistance 	362.20757527879
scalar MyScenario.node[68].veinsmobility 	totalCO2Emission 	133.02414710009
scalar MyScenario.node[309].appl 	generatedWSMs 	0
scalar MyScenario.node[309].appl 	receivedWSMs 	0
scalar MyScenario.node[309].appl 	generatedBSMs 	0
scalar MyScenario.node[309].appl 	receivedBSMs 	0
scalar MyScenario.node[309].appl 	generatedWSAs 	0
scalar MyScenario.node[309].appl 	receivedWSAs 	0
scalar MyScenario.node[309].nic.phy80211p 	busyTime 	0.00010112820512821
scalar MyScenario.node[309].nic.mac1609_4 	ReceivedUnicastPackets 	0
scalar MyScenario.node[309].nic.mac1609_4 	ReceivedBroadcasts 	0
scalar MyScenario.node[309].nic.mac1609_4 	SentPackets 	0
scalar MyScenario.node[309].nic.mac1609_4 	SNIRLostPackets 	17
scalar MyScenario.node[309].nic.mac1609_4 	RXTXLostPackets 	0
scalar MyScenario.node[309].nic.mac1609_4 	TotalLostPackets 	17
scalar MyScenario.node[309].nic.mac1609_4 	DroppedPacketsInMac 	0
scalar MyScenario.node[309].nic.mac1609_4 	TooLittleTime 	0
scalar MyScenario.node[309].nic.mac1609_4 	TimesIntoBackoff 	0
scalar MyScenario.node[309].nic.mac1609_4 	SlotsBackoff 	0
scalar MyScenario.node[309].nic.mac1609_4 	NumInternalContention 	0
scalar MyScenario.node[309].nic.mac1609_4 	totalBusyTime 	0.000928
scalar MyScenario.node[309].veinsmobility 	startTime 	4
scalar MyScenario.node[309].veinsmobility 	totalTime 	38
scalar MyScenario.node[309].veinsmobility 	stopTime 	43
scalar MyScenario.node[309].veinsmobility 	minSpeed 	3.9233934585753e-09
scalar MyScenario.node[309].veinsmobility 	maxSpeed 	13.679201579723
scalar MyScenario.node[309].veinsmobility 	totalDistance 	268.78066479607
scalar MyScenario.node[309].veinsmobility 	totalCO2Emission 	103.36427106061
scalar MyScenario.node[212].appl 	generatedWSMs 	1
scalar MyScenario.node[212].appl 	receivedWSMs 	2
scalar MyScenario.node[212].appl 	generatedBSMs 	0
scalar MyScenario.node[212].appl 	receivedBSMs 	0
scalar MyScenario.node[212].appl 	generatedWSAs 	0
scalar MyScenario.node[212].appl 	receivedWSAs 	0
scalar MyScenario.node[212].nic.phy80211p 	busyTime 	0.00020563636363636
scalar MyScenario.node[212].nic.mac1609_4 	ReceivedUnicastPackets 	0
scalar MyScenario.node[212].nic.mac1609_4 	ReceivedBroadcasts 	2
scalar MyScenario.node[212].nic.mac1609_4 	SentPackets 	1
scalar MyScenario.node[212].nic.mac1609_4 	SNIRLostPackets 	37
scalar MyScenario.node[212].nic.mac1609_4 	RXTXLostPackets 	2
scalar MyScenario.node[212].nic.mac1609_4 	TotalLostPackets 	39
scalar MyScenario.node[212].nic.mac1609_4 	DroppedPacketsInMac 	0
scalar MyScenario.node[212].nic.mac1609_4 	TooLittleTime 	0
scalar MyScenario.node[212].nic.mac1609_4 	TimesIntoBackoff 	1
scalar MyScenario.node[212].nic.mac1609_4 	SlotsBackoff 	1
scalar MyScenario.node[212].nic.mac1609_4 	NumInternalContention 	0
scalar MyScenario.node[212].nic.mac1609_4 	totalBusyTime 	0.002089120635
scalar MyScenario.node[212].veinsmobility 	startTime 	1
scalar MyScenario.node[212].veinsmobility 	totalTime 	43
scalar MyScenario.node[212].veinsmobility 	stopTime 	45
scalar MyScenario.node[212].veinsmobility 	minSpeed 	1.3544627618045
scalar MyScenario.node[212].veinsmobility 	maxSpeed 	13.854367295885
scalar MyScenario.node[212].veinsmobility 	totalDistance 	459.07175538958
scalar MyScenario.node[212].veinsmobility 	totalCO2Emission 	146.14936545928
scalar MyScenario.node[164].appl 	generatedWSMs 	0
scalar MyScenario.node[164].appl 	receivedWSMs 	0
scalar MyScenario.node[164].appl 	generatedBSMs 	0
scalar MyScenario.node[164].appl 	receivedBSMs 	0
scalar MyScenario.node[164].appl 	generatedWSAs 	0
scalar MyScenario.node[164].appl 	receivedWSAs 	0
scalar MyScenario.node[164].nic.phy80211p 	busyTime 	2.6363636363636e-05
scalar MyScenario.node[164].nic.mac1609_4 	ReceivedUnicastPackets 	0
scalar MyScenario.node[164].nic.mac1609_4 	ReceivedBroadcasts 	0
scalar MyScenario.node[164].nic.mac1609_4 	SentPackets 	0
scalar MyScenario.node[164].nic.mac1609_4 	SNIRLostPackets 	5
scalar MyScenario.node[164].nic.mac1609_4 	RXTXLostPackets 	0
scalar MyScenario.node[164].nic.mac1609_4 	TotalLostPackets 	5
scalar MyScenario.node[164].nic.mac1609_4 	DroppedPacketsInMac 	0
scalar MyScenario.node[164].nic.mac1609_4 	TooLittleTime 	0
scalar MyScenario.node[164].nic.mac1609_4 	TimesIntoBackoff 	0
scalar MyScenario.node[164].nic.mac1609_4 	SlotsBackoff 	0
scalar MyScenario.node[164].nic.mac1609_4 	NumInternalContention 	0
scalar MyScenario.node[164].nic.mac1609_4 	totalBusyTime 	0.000232
scalar MyScenario.node[164].veinsmobility 	startTime 	1
scalar MyScenario.node[164].veinsmobility 	totalTime 	43
scalar MyScenario.node[164].veinsmobility 	stopTime 	45
scalar MyScenario.node[164].veinsmobility 	minSpeed 	1.4735941152787
scalar MyScenario.node[164].veinsmobility 	maxSpeed 	13.800672937999
scalar MyScenario.node[164].veinsmobility 	totalDistance 	475.83899497599
scalar MyScenario.node[164].veinsmobility 	totalCO2Emission 	148.03780246237
scalar MyScenario.node[148].appl 	generatedWSMs 	0
scalar MyScenario.node[148].appl 	receivedWSMs 	0
scalar MyScenario.node[148].appl 	generatedBSMs 	0
scalar MyScenario.node[148].appl 	receivedBSMs 	0
scalar MyScenario.node[148].appl 	generatedWSAs 	0
scalar MyScenario.node[148].appl 	receivedWSAs 	0
scalar MyScenario.node[148].nic.phy80211p 	busyTime 	0.00021137777777778
scalar MyScenario.node[148].nic.mac1609_4 	ReceivedUnicastPackets 	0
scalar MyScenario.node[148].nic.mac1609_4 	ReceivedBroadcasts 	0
scalar MyScenario.node[148].nic.mac1609_4 	SentPackets 	0
scalar MyScenario.node[148].nic.mac1609_4 	SNIRLostPackets 	41
scalar MyScenario.node[148].nic.mac1609_4 	RXTXLostPackets 	0
scalar MyScenario.node[148].nic.mac1609_4 	TotalLostPackets 	41
scalar MyScenario.node[148].nic.mac1609_4 	DroppedPacketsInMac 	0
scalar MyScenario.node[148].nic.mac1609_4 	TooLittleTime 	0
scalar MyScenario.node[148].nic.mac1609_4 	TimesIntoBackoff 	0
scalar MyScenario.node[148].nic.mac1609_4 	SlotsBackoff 	0
scalar MyScenario.node[148].nic.mac1609_4 	NumInternalContention 	0
scalar MyScenario.node[148].nic.mac1609_4 	totalBusyTime 	0.001624
scalar MyScenario.node[148].veinsmobility 	startTime 	1
scalar MyScenario.node[148].veinsmobility 	totalTime 	44
scalar MyScenario.node[148].veinsmobility 	stopTime 	46
scalar MyScenario.node[148].veinsmobility 	minSpeed 	2.4837803714676
scalar MyScenario.node[148].veinsmobility 	maxSpeed 	13.77172811015
scalar MyScenario.node[148].veinsmobility 	totalDistance 	478.14881396023
scalar MyScenario.node[148].veinsmobility 	totalCO2Emission 	145.10217956731
scalar MyScenario.node[240].appl 	generatedWSMs 	1
scalar MyScenario.node[240].appl 	receivedWSMs 	15
scalar MyScenario.node[240].appl 	generatedBSMs 	0
scalar MyScenario.node[240].appl 	receivedBSMs 	0
scalar MyScenario.node[240].appl 	generatedWSAs 	0
scalar MyScenario.node[240].appl 	receivedWSAs 	0
scalar MyScenario.node[240].nic.phy80211p 	busyTime 	0.00027516279069767
scalar MyScenario.node[240].nic.mac1609_4 	ReceivedUnicastPackets 	0
scalar MyScenario.node[240].nic.mac1609_4 	ReceivedBroadcasts 	15
scalar MyScenario.node[240].nic.mac1609_4 	SentPackets 	1
scalar MyScenario.node[240].nic.mac1609_4 	SNIRLostPackets 	36
scalar MyScenario.node[240].nic.mac1609_4 	RXTXLostPackets 	6
scalar MyScenario.node[240].nic.mac1609_4 	TotalLostPackets 	42
scalar MyScenario.node[240].nic.mac1609_4 	DroppedPacketsInMac 	0
scalar MyScenario.node[240].nic.mac1609_4 	TooLittleTime 	0
scalar MyScenario.node[240].nic.mac1609_4 	TimesIntoBackoff 	1
scalar MyScenario.node[240].nic.mac1609_4 	SlotsBackoff 	0
scalar MyScenario.node[240].nic.mac1609_4 	NumInternalContention 	0
scalar MyScenario.node[240].nic.mac1609_4 	totalBusyTime 	0.005337232665
scalar MyScenario.node[240].veinsmobility 	startTime 	4
scalar MyScenario.node[240].veinsmobility 	totalTime 	42
scalar MyScenario.node[240].veinsmobility 	stopTime 	47
scalar MyScenario.node[240].veinsmobility 	minSpeed 	2.1112646131543
scalar MyScenario.node[240].veinsmobility 	maxSpeed 	13.808571172203
scalar MyScenario.node[240].veinsmobility 	totalDistance 	474.21437920895
scalar MyScenario.node[240].veinsmobility 	totalCO2Emission 	142.56007599844
scalar MyScenario.node[194].appl 	generatedWSMs 	0
scalar MyScenario.node[194].appl 	receivedWSMs 	0
scalar MyScenario.node[194].appl 	generatedBSMs 	0
scalar MyScenario.node[194].appl 	receivedBSMs 	0
scalar MyScenario.node[194].appl 	generatedWSAs 	0
scalar MyScenario.node[194].appl 	receivedWSAs 	0
scalar MyScenario.node[194].nic.phy80211p 	busyTime 	0.00016916666666667
scalar MyScenario.node[194].nic.mac1609_4 	ReceivedUnicastPackets 	0
scalar MyScenario.node[194].nic.mac1609_4 	ReceivedBroadcasts 	0
scalar MyScenario.node[194].nic.mac1609_4 	SentPackets 	0
scalar MyScenario.node[194].nic.mac1609_4 	SNIRLostPackets 	35
scalar MyScenario.node[194].nic.mac1609_4 	RXTXLostPackets 	0
scalar MyScenario.node[194].nic.mac1609_4 	TotalLostPackets 	35
scalar MyScenario.node[194].nic.mac1609_4 	DroppedPacketsInMac 	0
scalar MyScenario.node[194].nic.mac1609_4 	TooLittleTime 	0
scalar MyScenario.node[194].nic.mac1609_4 	TimesIntoBackoff 	0
scalar MyScenario.node[194].nic.mac1609_4 	SlotsBackoff 	0
scalar MyScenario.node[194].nic.mac1609_4 	NumInternalContention 	0
scalar MyScenario.node[194].nic.mac1609_4 	totalBusyTime 	0.001624
scalar MyScenario.node[194].veinsmobility 	startTime 	1
scalar MyScenario.node[194].veinsmobility 	totalTime 	47
scalar MyScenario.node[194].veinsmobility 	stopTime 	49
scalar MyScenario.node[194].veinsmobility 	minSpeed 	1.6198993704515
scalar MyScenario.node[194].veinsmobility 	maxSpeed 	13.895073406817
scalar MyScenario.node[194].veinsmobility 	totalDistance 	568.0740674702
scalar MyScenario.node[194].veinsmobility 	totalCO2Emission 	135.35685997853
scalar MyScenario.node[123].appl 	generatedWSMs 	0
scalar MyScenario.node[123].appl 	receivedWSMs 	0
scalar MyScenario.node[123].appl 	generatedBSMs 	0
scalar MyScenario.node[123].appl 	receivedBSMs 	0
scalar MyScenario.node[123].appl 	generatedWSAs 	0
scalar MyScenario.node[123].appl 	receivedWSAs 	0
scalar MyScenario.node[123].nic.phy80211p 	busyTime 	0.00010633333333333
scalar MyScenario.node[123].nic.mac1609_4 	ReceivedUnicastPackets 	0
scalar MyScenario.node[123].nic.mac1609_4 	ReceivedBroadcasts 	0
scalar MyScenario.node[123].nic.mac1609_4 	SentPackets 	0
scalar MyScenario.node[123].nic.mac1609_4 	SNIRLostPackets 	22
scalar MyScenario.node[123].nic.mac1609_4 	RXTXLostPackets 	0
scalar MyScenario.node[123].nic.mac1609_4 	TotalLostPackets 	22
scalar MyScenario.node[123].nic.mac1609_4 	DroppedPacketsInMac 	0
scalar MyScenario.node[123].nic.mac1609_4 	TooLittleTime 	0
scalar MyScenario.node[123].nic.mac1609_4 	TimesIntoBackoff 	0
scalar MyScenario.node[123].nic.mac1609_4 	SlotsBackoff 	0
scalar MyScenario.node[123].nic.mac1609_4 	NumInternalContention 	0
scalar MyScenario.node[123].nic.mac1609_4 	totalBusyTime 	0.000464055168
scalar MyScenario.node[123].veinsmobility 	startTime 	1
scalar MyScenario.node[123].veinsmobility 	totalTime 	47
scalar MyScenario.node[123].veinsmobility 	stopTime 	49
scalar MyScenario.node[123].veinsmobility 	minSpeed 	0.3192046014808
scalar MyScenario.node[123].veinsmobility 	maxSpeed 	13.54146792423
scalar MyScenario.node[123].veinsmobility 	totalDistance 	378.06065962088
scalar MyScenario.node[123].veinsmobility 	totalCO2Emission 	144.794152859
scalar MyScenario.node[54].appl 	generatedWSMs 	1
scalar MyScenario.node[54].appl 	receivedWSMs 	2
scalar MyScenario.node[54].appl 	generatedBSMs 	0
scalar MyScenario.node[54].appl 	receivedBSMs 	0
scalar MyScenario.node[54].appl 	generatedWSAs 	0
scalar MyScenario.node[54].appl 	receivedWSAs 	0
scalar MyScenario.node[54].nic.phy80211p 	busyTime 	5.8e-05
scalar MyScenario.node[54].nic.mac1609_4 	ReceivedUnicastPackets 	0
scalar MyScenario.node[54].nic.mac1609_4 	ReceivedBroadcasts 	2
scalar MyScenario.node[54].nic.mac1609_4 	SentPackets 	1
scalar MyScenario.node[54].nic.mac1609_4 	SNIRLostPackets 	10
scalar MyScenario.node[54].nic.mac1609_4 	RXTXLostPackets 	7
scalar MyScenario.node[54].nic.mac1609_4 	TotalLostPackets 	17
scalar MyScenario.node[54].nic.mac1609_4 	DroppedPacketsInMac 	0
scalar MyScenario.node[54].nic.mac1609_4 	TooLittleTime 	0
scalar MyScenario.node[54].nic.mac1609_4 	TimesIntoBackoff 	1
scalar MyScenario.node[54].nic.mac1609_4 	SlotsBackoff 	0
scalar MyScenario.node[54].nic.mac1609_4 	NumInternalContention 	0
scalar MyScenario.node[54].nic.mac1609_4 	totalBusyTime 	0.001161
scalar MyScenario.node[54].veinsmobility 	startTime 	1
scalar MyScenario.node[54].veinsmobility 	totalTime 	47
scalar MyScenario.node[54].veinsmobility 	stopTime 	49
scalar MyScenario.node[54].veinsmobility 	minSpeed 	2.4885502194753
scalar MyScenario.node[54].veinsmobility 	maxSpeed 	13.891160666081
scalar MyScenario.node[54].veinsmobility 	totalDistance 	557.4673657128
scalar MyScenario.node[54].veinsmobility 	totalCO2Emission 	141.00053874531
scalar MyScenario.node[154].appl 	generatedWSMs 	1
scalar MyScenario.node[154].appl 	receivedWSMs 	1
scalar MyScenario.node[154].appl 	generatedBSMs 	0
scalar MyScenario.node[154].appl 	receivedBSMs 	0
scalar MyScenario.node[154].appl 	generatedWSAs 	0
scalar MyScenario.node[154].appl 	receivedWSAs 	0
scalar MyScenario.node[154].nic.phy80211p 	busyTime 	9.6666666666667e-05
scalar MyScenario.node[154].nic.mac1609_4 	ReceivedUnicastPackets 	0
scalar MyScenario.node[154].nic.mac1609_4 	ReceivedBroadcasts 	1
scalar MyScenario.node[154].nic.mac1609_4 	SentPackets 	1
scalar MyScenario.node[154].nic.mac1609_4 	SNIRLostPackets 	19
scalar MyScenario.node[154].nic.mac1609_4 	RXTXLostPackets 	0
scalar MyScenario.node[154].nic.mac1609_4 	TotalLostPackets 	19
scalar MyScenario.node[154].nic.mac1609_4 	DroppedPacketsInMac 	0
scalar MyScenario.node[154].nic.mac1609_4 	TooLittleTime 	0
scalar MyScenario.node[154].nic.mac1609_4 	TimesIntoBackoff 	1
scalar MyScenario.node[154].nic.mac1609_4 	SlotsBackoff 	0
scalar MyScenario.node[154].nic.mac1609_4 	NumInternalContention 	0
scalar MyScenario.node[154].nic.mac1609_4 	totalBusyTime 	0.002089
scalar MyScenario.node[154].veinsmobility 	startTime 	1
scalar MyScenario.node[154].veinsmobility 	totalTime 	47
scalar MyScenario.node[154].veinsmobility 	stopTime 	49
scalar MyScenario.node[154].veinsmobility 	minSpeed 	1.8934048956726
scalar MyScenario.node[154].veinsmobility 	maxSpeed 	13.882214857871
scalar MyScenario.node[154].veinsmobility 	totalDistance 	563.75453084865
scalar MyScenario.node[154].veinsmobility 	totalCO2Emission 	135.58913928992
scalar MyScenario.node[197].appl 	generatedWSMs 	0
scalar MyScenario.node[197].appl 	receivedWSMs 	0
scalar MyScenario.node[197].appl 	generatedBSMs 	0
scalar MyScenario.node[197].appl 	receivedBSMs 	0
scalar MyScenario.node[197].appl 	generatedWSAs 	0
scalar MyScenario.node[197].appl 	receivedWSAs 	0
scalar MyScenario.node[197].nic.phy80211p 	busyTime 	0
scalar MyScenario.node[197].nic.mac1609_4 	ReceivedUnicastPackets 	0
scalar MyScenario.node[197].nic.mac1609_4 	ReceivedBroadcasts 	0
scalar MyScenario.node[197].nic.mac1609_4 	SentPackets 	0
scalar MyScenario.node[197].nic.mac1609_4 	SNIRLostPackets 	0
scalar MyScenario.node[197].nic.mac1609_4 	RXTXLostPackets 	0
scalar MyScenario.node[197].nic.mac1609_4 	TotalLostPackets 	0
scalar MyScenario.node[197].nic.mac1609_4 	DroppedPacketsInMac 	0
scalar MyScenario.node[197].nic.mac1609_4 	TooLittleTime 	0
scalar MyScenario.node[197].nic.mac1609_4 	TimesIntoBackoff 	0
scalar MyScenario.node[197].nic.mac1609_4 	SlotsBackoff 	0
scalar MyScenario.node[197].nic.mac1609_4 	NumInternalContention 	0
scalar MyScenario.node[197].nic.mac1609_4 	totalBusyTime 	0
scalar MyScenario.node[197].veinsmobility 	startTime 	1
scalar MyScenario.node[197].veinsmobility 	totalTime 	48
scalar MyScenario.node[197].veinsmobility 	stopTime 	50
scalar MyScenario.node[197].veinsmobility 	minSpeed 	0.18591600875723
scalar MyScenario.node[197].veinsmobility 	maxSpeed 	13.610834578238
scalar MyScenario.node[197].veinsmobility 	totalDistance 	462.36056969287
scalar MyScenario.node[197].veinsmobility 	totalCO2Emission 	163.22972133987
scalar MyScenario.node[385].appl 	generatedWSMs 	0
scalar MyScenario.node[385].appl 	receivedWSMs 	0
scalar MyScenario.node[385].appl 	generatedBSMs 	0
scalar MyScenario.node[385].appl 	receivedBSMs 	0
scalar MyScenario.node[385].appl 	generatedWSAs 	0
scalar MyScenario.node[385].appl 	receivedWSAs 	0
scalar MyScenario.node[385].nic.phy80211p 	busyTime 	0
scalar MyScenario.node[385].nic.mac1609_4 	ReceivedUnicastPackets 	0
scalar MyScenario.node[385].nic.mac1609_4 	ReceivedBroadcasts 	0
scalar MyScenario.node[385].nic.mac1609_4 	SentPackets 	0
scalar MyScenario.node[385].nic.mac1609_4 	SNIRLostPackets 	0
scalar MyScenario.node[385].nic.mac1609_4 	RXTXLostPackets 	0
scalar MyScenario.node[385].nic.mac1609_4 	TotalLostPackets 	0
scalar MyScenario.node[385].nic.mac1609_4 	DroppedPacketsInMac 	0
scalar MyScenario.node[385].nic.mac1609_4 	TooLittleTime 	0
scalar MyScenario.node[385].nic.mac1609_4 	TimesIntoBackoff 	0
scalar MyScenario.node[385].nic.mac1609_4 	SlotsBackoff 	0
scalar MyScenario.node[385].nic.mac1609_4 	NumInternalContention 	0
scalar MyScenario.node[385].nic.mac1609_4 	totalBusyTime 	0
scalar MyScenario.node[385].veinsmobility 	startTime 	7
scalar MyScenario.node[385].veinsmobility 	totalTime 	42
scalar MyScenario.node[385].veinsmobility 	stopTime 	50
scalar MyScenario.node[385].veinsmobility 	minSpeed 	0.88771157303849
scalar MyScenario.node[385].veinsmobility 	maxSpeed 	13.863360087271
scalar MyScenario.node[385].veinsmobility 	totalDistance 	459.57233464292
scalar MyScenario.node[385].veinsmobility 	totalCO2Emission 	138.36755223524
scalar MyScenario.node[342].appl 	generatedWSMs 	1
scalar MyScenario.node[342].appl 	receivedWSMs 	4
scalar MyScenario.node[342].appl 	generatedBSMs 	0
scalar MyScenario.node[342].appl 	receivedBSMs 	0
scalar MyScenario.node[342].appl 	generatedWSAs 	0
scalar MyScenario.node[342].appl 	receivedWSAs 	0
scalar MyScenario.node[342].nic.phy80211p 	busyTime 	0.00010365957446809
scalar MyScenario.node[342].nic.mac1609_4 	ReceivedUnicastPackets 	0
scalar MyScenario.node[342].nic.mac1609_4 	ReceivedBroadcasts 	4
scalar MyScenario.node[342].nic.mac1609_4 	SentPackets 	1
scalar MyScenario.node[342].nic.mac1609_4 	SNIRLostPackets 	17
scalar MyScenario.node[342].nic.mac1609_4 	RXTXLostPackets 	9
scalar MyScenario.node[342].nic.mac1609_4 	TotalLostPackets 	26
scalar MyScenario.node[342].nic.mac1609_4 	DroppedPacketsInMac 	0
scalar MyScenario.node[342].nic.mac1609_4 	TooLittleTime 	0
scalar MyScenario.node[342].nic.mac1609_4 	TimesIntoBackoff 	1
scalar MyScenario.node[342].nic.mac1609_4 	SlotsBackoff 	1
scalar MyScenario.node[342].nic.mac1609_4 	NumInternalContention 	0
scalar MyScenario.node[342].nic.mac1609_4 	totalBusyTime 	0.001857
scalar MyScenario.node[342].veinsmobility 	startTime 	4
scalar MyScenario.node[342].veinsmobility 	totalTime 	46
scalar MyScenario.node[342].veinsmobility 	stopTime 	51
scalar MyScenario.node[342].veinsmobility 	minSpeed 	2.1082080719527
scalar MyScenario.node[342].veinsmobility 	maxSpeed 	13.789820793155
scalar MyScenario.node[342].veinsmobility 	totalDistance 	466.76603622866
scalar MyScenario.node[342].veinsmobility 	totalCO2Emission 	165.47878906768
scalar MyScenario.node[281].appl 	generatedWSMs 	0
scalar MyScenario.node[281].appl 	receivedWSMs 	0
scalar MyScenario.node[281].appl 	generatedBSMs 	0
scalar MyScenario.node[281].appl 	receivedBSMs 	0
scalar MyScenario.node[281].appl 	generatedWSAs 	0
scalar MyScenario.node[281].appl 	receivedWSAs 	0
scalar MyScenario.node[281].nic.phy80211p 	busyTime 	1.4808510638298e-05
scalar MyScenario.node[281].nic.mac1609_4 	ReceivedUnicastPackets 	0
scalar MyScenario.node[281].nic.mac1609_4 	ReceivedBroadcasts 	0
scalar MyScenario.node[281].nic.mac1609_4 	SentPackets 	0
scalar MyScenario.node[281].nic.mac1609_4 	SNIRLostPackets 	3
scalar MyScenario.node[281].nic.mac1609_4 	RXTXLostPackets 	0
scalar MyScenario.node[281].nic.mac1609_4 	TotalLostPackets 	3
scalar MyScenario.node[281].nic.mac1609_4 	DroppedPacketsInMac 	0
scalar MyScenario.node[281].nic.mac1609_4 	TooLittleTime 	0
scalar MyScenario.node[281].nic.mac1609_4 	TimesIntoBackoff 	0
scalar MyScenario.node[281].nic.mac1609_4 	SlotsBackoff 	0
scalar MyScenario.node[281].nic.mac1609_4 	NumInternalContention 	0
scalar MyScenario.node[281].nic.mac1609_4 	totalBusyTime 	0.000232
scalar MyScenario.node[281].veinsmobility 	startTime 	4
scalar MyScenario.node[281].veinsmobility 	totalTime 	46
scalar MyScenario.node[281].veinsmobility 	stopTime 	51
scalar MyScenario.node[281].veinsmobility 	minSpeed 	1.3560364288786
scalar MyScenario.node[281].veinsmobility 	maxSpeed 	13.895542881405
scalar MyScenario.node[281].veinsmobility 	totalDistance 	465.75803957919
scalar MyScenario.node[281].veinsmobility 	totalCO2Emission 	148.54662531987
scalar MyScenario.node[91].appl 	generatedWSMs 	0
scalar MyScenario.node[91].appl 	receivedWSMs 	0
scalar MyScenario.node[91].appl 	generatedBSMs 	0
scalar MyScenario.node[91].appl 	receivedBSMs 	0
scalar MyScenario.node[91].appl 	generatedWSAs 	0
scalar MyScenario.node[91].appl 	receivedWSAs 	0
scalar MyScenario.node[91].nic.phy80211p 	busyTime 	9.28e-06
scalar MyScenario.node[91].nic.mac1609_4 	ReceivedUnicastPackets 	0
scalar MyScenario.node[91].nic.mac1609_4 	ReceivedBroadcasts 	0
scalar MyScenario.node[91].nic.mac1609_4 	SentPackets 	0
scalar MyScenario.node[91].nic.mac1609_4 	SNIRLostPackets 	2
scalar MyScenario.node[91].nic.mac1609_4 	RXTXLostPackets 	0
scalar MyScenario.node[91].nic.mac1609_4 	TotalLostPackets 	2
scalar MyScenario.node[91].nic.mac1609_4 	DroppedPacketsInMac 	0
scalar MyScenario.node[91].nic.mac1609_4 	TooLittleTime 	0
scalar MyScenario.node[91].nic.mac1609_4 	TimesIntoBackoff 	0
scalar MyScenario.node[91].nic.mac1609_4 	SlotsBackoff 	0
scalar MyScenario.node[91].nic.mac1609_4 	NumInternalContention 	0
scalar MyScenario.node[91].nic.mac1609_4 	totalBusyTime 	0.000232
scalar MyScenario.node[91].veinsmobility 	startTime 	1
scalar MyScenario.node[91].veinsmobility 	totalTime 	49
scalar MyScenario.node[91].veinsmobility 	stopTime 	51
scalar MyScenario.node[91].veinsmobility 	minSpeed 	2.0292503356701
scalar MyScenario.node[91].veinsmobility 	maxSpeed 	13.899974179594
scalar MyScenario.node[91].veinsmobility 	totalDistance 	549.04355051804
scalar MyScenario.node[91].veinsmobility 	totalCO2Emission 	173.86213616301
scalar MyScenario.node[260].appl 	generatedWSMs 	1
scalar MyScenario.node[260].appl 	receivedWSMs 	7
scalar MyScenario.node[260].appl 	generatedBSMs 	0
scalar MyScenario.node[260].appl 	receivedBSMs 	0
scalar MyScenario.node[260].appl 	generatedWSAs 	0
scalar MyScenario.node[260].appl 	receivedWSAs 	0
scalar MyScenario.node[260].nic.phy80211p 	busyTime 	0.00014016666666667
scalar MyScenario.node[260].nic.mac1609_4 	ReceivedUnicastPackets 	0
scalar MyScenario.node[260].nic.mac1609_4 	ReceivedBroadcasts 	7
scalar MyScenario.node[260].nic.mac1609_4 	SentPackets 	1
[...]
scalar MyScenario.node[368].nic.mac1609_4 	TooLittleTime 	0
scalar MyScenario.node[368].nic.mac1609_4 	TimesIntoBackoff 	1
scalar MyScenario.node[368].nic.mac1609_4 	SlotsBackoff 	2
scalar MyScenario.node[368].nic.mac1609_4 	NumInternalContention 	0
scalar MyScenario.node[368].nic.mac1609_4 	totalBusyTime 	0.007889
scalar MyScenario.node[368].veinsmobility 	startTime 	7
scalar MyScenario.node[368].veinsmobility 	totalTime 	164
scalar MyScenario.node[368].veinsmobility 	stopTime 	172
scalar MyScenario.node[368].veinsmobility 	minSpeed 	0
scalar MyScenario.node[368].veinsmobility 	maxSpeed 	13.83882254723
scalar MyScenario.node[368].veinsmobility 	totalDistance 	1277.4049702871
scalar MyScenario.node[368].veinsmobility 	totalCO2Emission 	444.0800626201
scalar MyScenario.node[17].appl 	generatedWSMs 	1
scalar MyScenario.node[17].appl 	receivedWSMs 	36
scalar MyScenario.node[17].appl 	generatedBSMs 	0
scalar MyScenario.node[17].appl 	receivedBSMs 	0
scalar MyScenario.node[17].appl 	generatedWSAs 	0
scalar MyScenario.node[17].appl 	receivedWSAs 	0
scalar MyScenario.node[17].nic.phy80211p 	busyTime 	5.7664739884393e-05
scalar MyScenario.node[17].nic.mac1609_4 	ReceivedUnicastPackets 	0
scalar MyScenario.node[17].nic.mac1609_4 	ReceivedBroadcasts 	36
scalar MyScenario.node[17].nic.mac1609_4 	SentPackets 	1
scalar MyScenario.node[17].nic.mac1609_4 	SNIRLostPackets 	7
scalar MyScenario.node[17].nic.mac1609_4 	RXTXLostPackets 	9
scalar MyScenario.node[17].nic.mac1609_4 	TotalLostPackets 	16
scalar MyScenario.node[17].nic.mac1609_4 	DroppedPacketsInMac 	0
scalar MyScenario.node[17].nic.mac1609_4 	TooLittleTime 	0
scalar MyScenario.node[17].nic.mac1609_4 	TimesIntoBackoff 	1
scalar MyScenario.node[17].nic.mac1609_4 	SlotsBackoff 	1
scalar MyScenario.node[17].nic.mac1609_4 	NumInternalContention 	0
scalar MyScenario.node[17].nic.mac1609_4 	totalBusyTime 	0.009281
scalar MyScenario.node[17].veinsmobility 	startTime 	1
scalar MyScenario.node[17].veinsmobility 	totalTime 	172
scalar MyScenario.node[17].veinsmobility 	stopTime 	174
scalar MyScenario.node[17].veinsmobility 	minSpeed 	3.9308848425438e-12
scalar MyScenario.node[17].veinsmobility 	maxSpeed 	13.877042341558
scalar MyScenario.node[17].veinsmobility 	totalDistance 	1378.9326981467
scalar MyScenario.node[17].veinsmobility 	totalCO2Emission 	466.75346038608
scalar MyScenario.node[355].appl 	generatedWSMs 	1
scalar MyScenario.node[355].appl 	receivedWSMs 	28
scalar MyScenario.node[355].appl 	generatedBSMs 	0
scalar MyScenario.node[355].appl 	receivedBSMs 	0
scalar MyScenario.node[355].appl 	generatedWSAs 	0
scalar MyScenario.node[355].appl 	receivedWSAs 	0
scalar MyScenario.node[355].nic.phy80211p 	busyTime 	5.140119760479e-05
scalar MyScenario.node[355].nic.mac1609_4 	ReceivedUnicastPackets 	0
scalar MyScenario.node[355].nic.mac1609_4 	ReceivedBroadcasts 	28
scalar MyScenario.node[355].nic.mac1609_4 	SentPackets 	1
scalar MyScenario.node[355].nic.mac1609_4 	SNIRLostPackets 	9
scalar MyScenario.node[355].nic.mac1609_4 	RXTXLostPackets 	2
scalar MyScenario.node[355].nic.mac1609_4 	TotalLostPackets 	11
scalar MyScenario.node[355].nic.mac1609_4 	DroppedPacketsInMac 	0
scalar MyScenario.node[355].nic.mac1609_4 	TooLittleTime 	0
scalar MyScenario.node[355].nic.mac1609_4 	TimesIntoBackoff 	1
scalar MyScenario.node[355].nic.mac1609_4 	SlotsBackoff 	1
scalar MyScenario.node[355].nic.mac1609_4 	NumInternalContention 	0
scalar MyScenario.node[355].nic.mac1609_4 	totalBusyTime 	0.007657
scalar MyScenario.node[355].veinsmobility 	startTime 	7
scalar MyScenario.node[355].veinsmobility 	totalTime 	166
scalar MyScenario.node[355].veinsmobility 	stopTime 	174
scalar MyScenario.node[355].veinsmobility 	minSpeed 	2.5772962482036e-15
scalar MyScenario.node[355].veinsmobility 	maxSpeed 	13.857553511788
scalar MyScenario.node[355].veinsmobility 	totalDistance 	1365.5581299592
scalar MyScenario.node[355].veinsmobility 	totalCO2Emission 	471.08414017758
scalar MyScenario.node[252].appl 	generatedWSMs 	1
scalar MyScenario.node[252].appl 	receivedWSMs 	10
scalar MyScenario.node[252].appl 	generatedBSMs 	0
scalar MyScenario.node[252].appl 	receivedBSMs 	0
scalar MyScenario.node[252].appl 	generatedWSAs 	0
scalar MyScenario.node[252].appl 	receivedWSAs 	0
scalar MyScenario.node[252].nic.phy80211p 	busyTime 	3.2752941176471e-05
scalar MyScenario.node[252].nic.mac1609_4 	ReceivedUnicastPackets 	0
scalar MyScenario.node[252].nic.mac1609_4 	ReceivedBroadcasts 	10
scalar MyScenario.node[252].nic.mac1609_4 	SentPackets 	1
scalar MyScenario.node[252].nic.mac1609_4 	SNIRLostPackets 	14
scalar MyScenario.node[252].nic.mac1609_4 	RXTXLostPackets 	6
scalar MyScenario.node[252].nic.mac1609_4 	TotalLostPackets 	20
scalar MyScenario.node[252].nic.mac1609_4 	DroppedPacketsInMac 	0
scalar MyScenario.node[252].nic.mac1609_4 	TooLittleTime 	0
scalar MyScenario.node[252].nic.mac1609_4 	TimesIntoBackoff 	1
scalar MyScenario.node[252].nic.mac1609_4 	SlotsBackoff 	1
scalar MyScenario.node[252].nic.mac1609_4 	NumInternalContention 	0
scalar MyScenario.node[252].nic.mac1609_4 	totalBusyTime 	0.003713
scalar MyScenario.node[252].veinsmobility 	startTime 	4
scalar MyScenario.node[252].veinsmobility 	totalTime 	169
scalar MyScenario.node[252].veinsmobility 	stopTime 	174
scalar MyScenario.node[252].veinsmobility 	minSpeed 	6.6400873831984e-05
scalar MyScenario.node[252].veinsmobility 	maxSpeed 	13.896107450128
scalar MyScenario.node[252].veinsmobility 	totalDistance 	1563.8308078331
scalar MyScenario.node[252].veinsmobility 	totalCO2Emission 	445.79270431995
scalar MyScenario.node[356].appl 	generatedWSMs 	1
scalar MyScenario.node[356].appl 	receivedWSMs 	12
scalar MyScenario.node[356].appl 	generatedBSMs 	0
scalar MyScenario.node[356].appl 	receivedBSMs 	0
scalar MyScenario.node[356].appl 	generatedWSAs 	0
scalar MyScenario.node[356].appl 	receivedWSAs 	0
scalar MyScenario.node[356].nic.phy80211p 	busyTime 	4.1428571428571e-05
scalar MyScenario.node[356].nic.mac1609_4 	ReceivedUnicastPackets 	0
scalar MyScenario.node[356].nic.mac1609_4 	ReceivedBroadcasts 	12
scalar MyScenario.node[356].nic.mac1609_4 	SentPackets 	1
scalar MyScenario.node[356].nic.mac1609_4 	SNIRLostPackets 	18
scalar MyScenario.node[356].nic.mac1609_4 	RXTXLostPackets 	3
scalar MyScenario.node[356].nic.mac1609_4 	TotalLostPackets 	21
scalar MyScenario.node[356].nic.mac1609_4 	DroppedPacketsInMac 	0
scalar MyScenario.node[356].nic.mac1609_4 	TooLittleTime 	0
scalar MyScenario.node[356].nic.mac1609_4 	TimesIntoBackoff 	1
scalar MyScenario.node[356].nic.mac1609_4 	SlotsBackoff 	0
scalar MyScenario.node[356].nic.mac1609_4 	NumInternalContention 	0
scalar MyScenario.node[356].nic.mac1609_4 	totalBusyTime 	0.004641140916
scalar MyScenario.node[356].veinsmobility 	startTime 	7
scalar MyScenario.node[356].veinsmobility 	totalTime 	167
scalar MyScenario.node[356].veinsmobility 	stopTime 	175
scalar MyScenario.node[356].veinsmobility 	minSpeed 	1.1825415935546e-10
scalar MyScenario.node[356].veinsmobility 	maxSpeed 	13.899467925471
scalar MyScenario.node[356].veinsmobility 	totalDistance 	1173.1078453657
scalar MyScenario.node[356].veinsmobility 	totalCO2Emission 	465.49712143689
scalar MyScenario.node[52].appl 	generatedWSMs 	1
scalar MyScenario.node[52].appl 	receivedWSMs 	6
scalar MyScenario.node[52].appl 	generatedBSMs 	0
scalar MyScenario.node[52].appl 	receivedBSMs 	0
scalar MyScenario.node[52].appl 	generatedWSAs 	0
scalar MyScenario.node[52].appl 	receivedWSAs 	0
scalar MyScenario.node[52].nic.phy80211p 	busyTime 	4.7725714285714e-05
scalar MyScenario.node[52].nic.mac1609_4 	ReceivedUnicastPackets 	0
scalar MyScenario.node[52].nic.mac1609_4 	ReceivedBroadcasts 	6
scalar MyScenario.node[52].nic.mac1609_4 	SentPackets 	1
scalar MyScenario.node[52].nic.mac1609_4 	SNIRLostPackets 	30
scalar MyScenario.node[52].nic.mac1609_4 	RXTXLostPackets 	2
scalar MyScenario.node[52].nic.mac1609_4 	TotalLostPackets 	32
scalar MyScenario.node[52].nic.mac1609_4 	DroppedPacketsInMac 	0
scalar MyScenario.node[52].nic.mac1609_4 	TooLittleTime 	0
scalar MyScenario.node[52].nic.mac1609_4 	TimesIntoBackoff 	1
scalar MyScenario.node[52].nic.mac1609_4 	SlotsBackoff 	2
scalar MyScenario.node[52].nic.mac1609_4 	NumInternalContention 	0
scalar MyScenario.node[52].nic.mac1609_4 	totalBusyTime 	0.003481
scalar MyScenario.node[52].veinsmobility 	startTime 	1
scalar MyScenario.node[52].veinsmobility 	totalTime 	174
scalar MyScenario.node[52].veinsmobility 	stopTime 	176
scalar MyScenario.node[52].veinsmobility 	minSpeed 	2.7508944925324e-06
scalar MyScenario.node[52].veinsmobility 	maxSpeed 	13.897826424008
scalar MyScenario.node[52].veinsmobility 	totalDistance 	1553.3354415365
scalar MyScenario.node[52].veinsmobility 	totalCO2Emission 	498.4813492257
scalar MyScenario.node[299].appl 	generatedWSMs 	1
scalar MyScenario.node[299].appl 	receivedWSMs 	15
scalar MyScenario.node[299].appl 	generatedBSMs 	0
scalar MyScenario.node[299].appl 	receivedBSMs 	0
scalar MyScenario.node[299].appl 	generatedWSAs 	0
scalar MyScenario.node[299].appl 	receivedWSAs 	0
scalar MyScenario.node[299].nic.phy80211p 	busyTime 	6.6471910112359e-05
scalar MyScenario.node[299].nic.mac1609_4 	ReceivedUnicastPackets 	0
scalar MyScenario.node[299].nic.mac1609_4 	ReceivedBroadcasts 	15
scalar MyScenario.node[299].nic.mac1609_4 	SentPackets 	1
scalar MyScenario.node[299].nic.mac1609_4 	SNIRLostPackets 	36
scalar MyScenario.node[299].nic.mac1609_4 	RXTXLostPackets 	4
scalar MyScenario.node[299].nic.mac1609_4 	TotalLostPackets 	40
scalar MyScenario.node[299].nic.mac1609_4 	DroppedPacketsInMac 	0
scalar MyScenario.node[299].nic.mac1609_4 	TooLittleTime 	0
scalar MyScenario.node[299].nic.mac1609_4 	TimesIntoBackoff 	1
scalar MyScenario.node[299].nic.mac1609_4 	SlotsBackoff 	0
scalar MyScenario.node[299].nic.mac1609_4 	NumInternalContention 	0
scalar MyScenario.node[299].nic.mac1609_4 	totalBusyTime 	0.005801080091
scalar MyScenario.node[299].veinsmobility 	startTime 	4
scalar MyScenario.node[299].veinsmobility 	totalTime 	177
scalar MyScenario.node[299].veinsmobility 	stopTime 	182
scalar MyScenario.node[299].veinsmobility 	minSpeed 	2.4904515963681e-15
scalar MyScenario.node[299].veinsmobility 	maxSpeed 	13.849624443287
scalar MyScenario.node[299].veinsmobility 	totalDistance 	1365.0743026956
scalar MyScenario.node[299].veinsmobility 	totalCO2Emission 	485.0890853513
scalar MyScenario.node[43].appl 	generatedWSMs 	1
scalar MyScenario.node[43].appl 	receivedWSMs 	2
scalar MyScenario.node[43].appl 	generatedBSMs 	0
scalar MyScenario.node[43].appl 	receivedBSMs 	0
scalar MyScenario.node[43].appl 	generatedWSAs 	0
scalar MyScenario.node[43].appl 	receivedWSAs 	0
scalar MyScenario.node[43].nic.phy80211p 	busyTime 	2.5635359116022e-05
scalar MyScenario.node[43].nic.mac1609_4 	ReceivedUnicastPackets 	0
scalar MyScenario.node[43].nic.mac1609_4 	ReceivedBroadcasts 	2
scalar MyScenario.node[43].nic.mac1609_4 	SentPackets 	1
scalar MyScenario.node[43].nic.mac1609_4 	SNIRLostPackets 	18
scalar MyScenario.node[43].nic.mac1609_4 	RXTXLostPackets 	0
scalar MyScenario.node[43].nic.mac1609_4 	TotalLostPackets 	18
scalar MyScenario.node[43].nic.mac1609_4 	DroppedPacketsInMac 	0
scalar MyScenario.node[43].nic.mac1609_4 	TooLittleTime 	0
scalar MyScenario.node[43].nic.mac1609_4 	TimesIntoBackoff 	2
scalar MyScenario.node[43].nic.mac1609_4 	SlotsBackoff 	4
scalar MyScenario.node[43].nic.mac1609_4 	NumInternalContention 	0
scalar MyScenario.node[43].nic.mac1609_4 	totalBusyTime 	0.001625023645
scalar MyScenario.node[43].veinsmobility 	startTime 	1
scalar MyScenario.node[43].veinsmobility 	totalTime 	180
scalar MyScenario.node[43].veinsmobility 	stopTime 	182
scalar MyScenario.node[43].veinsmobility 	minSpeed 	2.536503196789e-12
scalar MyScenario.node[43].veinsmobility 	maxSpeed 	13.876165666035
scalar MyScenario.node[43].veinsmobility 	totalDistance 	1166.9711537225
scalar MyScenario.node[43].veinsmobility 	totalCO2Emission 	440.24580479999
scalar MyScenario.node[185].appl 	generatedWSMs 	1
scalar MyScenario.node[185].appl 	receivedWSMs 	12
scalar MyScenario.node[185].appl 	generatedBSMs 	0
scalar MyScenario.node[185].appl 	receivedBSMs 	0
scalar MyScenario.node[185].appl 	generatedWSAs 	0
scalar MyScenario.node[185].appl 	receivedWSAs 	0
scalar MyScenario.node[185].nic.phy80211p 	busyTime 	6.9726775956284e-05
scalar MyScenario.node[185].nic.mac1609_4 	ReceivedUnicastPackets 	0
scalar MyScenario.node[185].nic.mac1609_4 	ReceivedBroadcasts 	12
scalar MyScenario.node[185].nic.mac1609_4 	SentPackets 	1
scalar MyScenario.node[185].nic.mac1609_4 	SNIRLostPackets 	43
scalar MyScenario.node[185].nic.mac1609_4 	RXTXLostPackets 	2
scalar MyScenario.node[185].nic.mac1609_4 	TotalLostPackets 	45
scalar MyScenario.node[185].nic.mac1609_4 	DroppedPacketsInMac 	0
scalar MyScenario.node[185].nic.mac1609_4 	TooLittleTime 	0
scalar MyScenario.node[185].nic.mac1609_4 	TimesIntoBackoff 	1
scalar MyScenario.node[185].nic.mac1609_4 	SlotsBackoff 	1
scalar MyScenario.node[185].nic.mac1609_4 	NumInternalContention 	0
scalar MyScenario.node[185].nic.mac1609_4 	totalBusyTime 	0.005801139664
scalar MyScenario.node[185].veinsmobility 	startTime 	1
scalar MyScenario.node[185].veinsmobility 	totalTime 	182
scalar MyScenario.node[185].veinsmobility 	stopTime 	184
scalar MyScenario.node[185].veinsmobility 	minSpeed 	6.4600258348655e-08
scalar MyScenario.node[185].veinsmobility 	maxSpeed 	13.868134357431
scalar MyScenario.node[185].veinsmobility 	totalDistance 	1271.7899748321
scalar MyScenario.node[185].veinsmobility 	totalCO2Emission 	502.12353372114
scalar MyScenario.node[225].appl 	generatedWSMs 	1
scalar MyScenario.node[225].appl 	receivedWSMs 	4
scalar MyScenario.node[225].appl 	generatedBSMs 	0
scalar MyScenario.node[225].appl 	receivedBSMs 	0
scalar MyScenario.node[225].appl 	generatedWSAs 	0
scalar MyScenario.node[225].appl 	receivedWSAs 	0
scalar MyScenario.node[225].nic.phy80211p 	busyTime 	3.0687830687831e-05
scalar MyScenario.node[225].nic.mac1609_4 	ReceivedUnicastPackets 	0
scalar MyScenario.node[225].nic.mac1609_4 	ReceivedBroadcasts 	4
scalar MyScenario.node[225].nic.mac1609_4 	SentPackets 	1
scalar MyScenario.node[225].nic.mac1609_4 	SNIRLostPackets 	21
scalar MyScenario.node[225].nic.mac1609_4 	RXTXLostPackets 	5
scalar MyScenario.node[225].nic.mac1609_4 	TotalLostPackets 	26
scalar MyScenario.node[225].nic.mac1609_4 	DroppedPacketsInMac 	0
scalar MyScenario.node[225].nic.mac1609_4 	TooLittleTime 	0
scalar MyScenario.node[225].nic.mac1609_4 	TimesIntoBackoff 	1
scalar MyScenario.node[225].nic.mac1609_4 	SlotsBackoff 	1
scalar MyScenario.node[225].nic.mac1609_4 	NumInternalContention 	0
scalar MyScenario.node[225].nic.mac1609_4 	totalBusyTime 	0.002553018666
scalar MyScenario.node[225].veinsmobility 	startTime 	1
scalar MyScenario.node[225].veinsmobility 	totalTime 	188
scalar MyScenario.node[225].veinsmobility 	stopTime 	190
scalar MyScenario.node[225].veinsmobility 	minSpeed 	5.9393965899488e-08
scalar MyScenario.node[225].veinsmobility 	maxSpeed 	13.897894439194
scalar MyScenario.node[225].veinsmobility 	totalDistance 	1365.554067657
scalar MyScenario.node[225].veinsmobility 	totalCO2Emission 	528.92635068494
scalar MyScenario.node[340].appl 	generatedWSMs 	1
scalar MyScenario.node[340].appl 	receivedWSMs 	12
scalar MyScenario.node[340].appl 	generatedBSMs 	0
scalar MyScenario.node[340].appl 	receivedBSMs 	0
scalar MyScenario.node[340].appl 	generatedWSAs 	0
scalar MyScenario.node[340].appl 	receivedWSAs 	0
scalar MyScenario.node[340].nic.phy80211p 	busyTime 	5.8610526315789e-05
scalar MyScenario.node[340].nic.mac1609_4 	ReceivedUnicastPackets 	0
scalar MyScenario.node[340].nic.mac1609_4 	ReceivedBroadcasts 	12
scalar MyScenario.node[340].nic.mac1609_4 	SentPackets 	1
scalar MyScenario.node[340].nic.mac1609_4 	SNIRLostPackets 	36
scalar MyScenario.node[340].nic.mac1609_4 	RXTXLostPackets 	2
scalar MyScenario.node[340].nic.mac1609_4 	TotalLostPackets 	38
scalar MyScenario.node[340].nic.mac1609_4 	DroppedPacketsInMac 	0
scalar MyScenario.node[340].nic.mac1609_4 	TooLittleTime 	0
scalar MyScenario.node[340].nic.mac1609_4 	TimesIntoBackoff 	1
scalar MyScenario.node[340].nic.mac1609_4 	SlotsBackoff 	3
scalar MyScenario.node[340].nic.mac1609_4 	NumInternalContention 	0
scalar MyScenario.node[340].nic.mac1609_4 	totalBusyTime 	0.005801012332
scalar MyScenario.node[340].veinsmobility 	startTime 	4
scalar MyScenario.node[340].veinsmobility 	totalTime 	189
scalar MyScenario.node[340].veinsmobility 	stopTime 	194
scalar MyScenario.node[340].veinsmobility 	minSpeed 	1.4818015344242e-07
scalar MyScenario.node[340].veinsmobility 	maxSpeed 	13.884918696247
scalar MyScenario.node[340].veinsmobility 	totalDistance 	1363.5693067776
scalar MyScenario.node[340].veinsmobility 	totalCO2Emission 	519.55196525349
scalar MyScenario.node[325].appl 	generatedWSMs 	1
scalar MyScenario.node[325].appl 	receivedWSMs 	3
scalar MyScenario.node[325].appl 	generatedBSMs 	0
scalar MyScenario.node[325].appl 	receivedBSMs 	0
scalar MyScenario.node[325].appl 	generatedWSAs 	0
scalar MyScenario.node[325].appl 	receivedWSAs 	0
scalar MyScenario.node[325].nic.phy80211p 	busyTime 	2.6583333333333e-05
scalar MyScenario.node[325].nic.mac1609_4 	ReceivedUnicastPackets 	0
scalar MyScenario.node[325].nic.mac1609_4 	ReceivedBroadcasts 	3
scalar MyScenario.node[325].nic.mac1609_4 	SentPackets 	1
scalar MyScenario.node[325].nic.mac1609_4 	SNIRLostPackets 	19
scalar MyScenario.node[325].nic.mac1609_4 	RXTXLostPackets 	3
scalar MyScenario.node[325].nic.mac1609_4 	TotalLostPackets 	22
scalar MyScenario.node[325].nic.mac1609_4 	DroppedPacketsInMac 	0
scalar MyScenario.node[325].nic.mac1609_4 	TooLittleTime 	0
scalar MyScenario.node[325].nic.mac1609_4 	TimesIntoBackoff 	1
scalar MyScenario.node[325].nic.mac1609_4 	SlotsBackoff 	2
scalar MyScenario.node[325].nic.mac1609_4 	NumInternalContention 	0
scalar MyScenario.node[325].nic.mac1609_4 	totalBusyTime 	0.002089023646
scalar MyScenario.node[325].veinsmobility 	startTime 	4
scalar MyScenario.node[325].veinsmobility 	totalTime 	191
scalar MyScenario.node[325].veinsmobility 	stopTime 	196
scalar MyScenario.node[325].veinsmobility 	minSpeed 	1.804670485249e-14
scalar MyScenario.node[325].veinsmobility 	maxSpeed 	13.895253446535
scalar MyScenario.node[325].veinsmobility 	totalDistance 	1474.8353550521
scalar MyScenario.node[325].veinsmobility 	totalCO2Emission 	485.3497121913
scalar MyScenario.node[379].appl 	generatedWSMs 	1
scalar MyScenario.node[379].appl 	receivedWSMs 	1
scalar MyScenario.node[379].appl 	generatedBSMs 	0
scalar MyScenario.node[379].appl 	receivedBSMs 	0
scalar MyScenario.node[379].appl 	generatedWSAs 	0
scalar MyScenario.node[379].appl 	receivedWSAs 	0
scalar MyScenario.node[379].nic.phy80211p 	busyTime 	1.478431372549e-05
scalar MyScenario.node[379].nic.mac1609_4 	ReceivedUnicastPackets 	0
scalar MyScenario.node[379].nic.mac1609_4 	ReceivedBroadcasts 	1
scalar MyScenario.node[379].nic.mac1609_4 	SentPackets 	1
scalar MyScenario.node[379].nic.mac1609_4 	SNIRLostPackets 	12
scalar MyScenario.node[379].nic.mac1609_4 	RXTXLostPackets 	6
scalar MyScenario.node[379].nic.mac1609_4 	TotalLostPackets 	18
scalar MyScenario.node[379].nic.mac1609_4 	DroppedPacketsInMac 	0
scalar MyScenario.node[379].nic.mac1609_4 	TooLittleTime 	0
scalar MyScenario.node[379].nic.mac1609_4 	TimesIntoBackoff 	1
scalar MyScenario.node[379].nic.mac1609_4 	SlotsBackoff 	3
scalar MyScenario.node[379].nic.mac1609_4 	NumInternalContention 	0
scalar MyScenario.node[379].nic.mac1609_4 	totalBusyTime 	0.001625
scalar MyScenario.node[379].veinsmobility 	startTime 	7
scalar MyScenario.node[379].veinsmobility 	totalTime 	203
scalar MyScenario.node[379].veinsmobility 	stopTime 	211
scalar MyScenario.node[379].veinsmobility 	minSpeed 	7.1741681564738e-05
scalar MyScenario.node[379].veinsmobility 	maxSpeed 	13.880833052681
scalar MyScenario.node[379].veinsmobility 	totalDistance 	1663.3344568053
scalar MyScenario.node[379].veinsmobility 	totalCO2Emission 	563.18385354265
