version 2
run General-18-20170829-17:40:10-8100
attr configname General
attr datetime 20170829-17:40:10
attr density 200
attr experiment General
attr inifile omnetpp.ini
attr iterationvars $density=200
attr iterationvars2 "$density=200, $repetition=8"
attr measurement $density=200
attr network com.liborio.pi.MyScenario
attr processid 8100
attr repetition 8
attr replication #8
attr resultdir results
attr runnumber 18
attr seedset 8
param **.coreDebug false
param **.debug false
param *.**.nic.mac1609_4.bitrate 6Mbps
param *.**.nic.mac1609_4.txPower 20mW
param *.**.nic.mac1609_4.useServiceChannel true
param *.**.nic.phy80211p.analogueModels "xmldoc(\"config.xml\")"
param *.**.nic.phy80211p.antenna "xmldoc(\"antenna.xml\", \"/root/Antenna[@id='monopole']\")"
param *.**.nic.phy80211p.decider "xmldoc(\"config.xml\")"
param *.**.nic.phy80211p.sensitivity -84.39dBm
param *.**.nic.phy80211p.thermalNoise -110dBm
param *.**.nic.phy80211p.usePropagationDelay true
param *.**.nic.phy80211p.useThermalNoise true
param *.annotations.draw true
param *.connectionManager.drawMaxIntfDist false
param *.connectionManager.maxInterfDist 2600m
param *.connectionManager.sendDirect true
param *.manager.autoShutdown true
param *.manager.host "\"localhost\""
param *.manager.launchConfig "xmldoc(string(${density = 100, 200, 300, 400})+\"_\"+ string(${repetition})+\".launchd.xml\")"
param *.manager.port 9999
param *.manager.updateInterval 1s
param *.node[*].appl.beaconInterval 1s
param *.node[*].appl.dataOnSch true
param *.node[*].appl.headerLength "80 bit"
param *.node[*].appl.isSource false
param *.node[*].appl.numMsgs 100
param *.node[*].appl.sendBeacons false
param *.node[*].appl.stopTrafficTime 130s
param *.node[*].appl.wsmInterval 3s
param *.node[*].applType "\"Flooding\""
param *.node[*].veinsmobility.x 0
param *.node[*].veinsmobility.y 0
param *.node[*].veinsmobility.z 1.895
param *.node[*].veinsmobilityType.debug true
param *.node[0].appl.isSource true
param *.playgroundSizeX 2500m
param *.playgroundSizeY 2500m
param *.playgroundSizeZ 50m

scalar . 	density 	200
scalar MyScenario.node[125].appl 	generatedWSMs 	0
scalar MyScenario.node[125].appl 	receivedWSMs 	0
scalar MyScenario.node[125].appl 	generatedBSMs 	0
scalar MyScenario.node[125].appl 	receivedBSMs 	0
scalar MyScenario.node[125].appl 	generatedWSAs 	0
scalar MyScenario.node[125].appl 	receivedWSAs 	0
scalar MyScenario.node[125].nic.phy80211p 	busyTime 	0
scalar MyScenario.node[125].nic.mac1609_4 	ReceivedUnicastPackets 	0
scalar MyScenario.node[125].nic.mac1609_4 	ReceivedBroadcasts 	0
scalar MyScenario.node[125].nic.mac1609_4 	SentPackets 	0
scalar MyScenario.node[125].nic.mac1609_4 	SNIRLostPackets 	0
scalar MyScenario.node[125].nic.mac1609_4 	RXTXLostPackets 	0
scalar MyScenario.node[125].nic.mac1609_4 	TotalLostPackets 	0
scalar MyScenario.node[125].nic.mac1609_4 	DroppedPacketsInMac 	0
scalar MyScenario.node[125].nic.mac1609_4 	TooLittleTime 	0
scalar MyScenario.node[125].nic.mac1609_4 	TimesIntoBackoff 	0
scalar MyScenario.node[125].nic.mac1609_4 	SlotsBackoff 	0
scalar MyScenario.node[125].nic.mac1609_4 	NumInternalContention 	0
scalar MyScenario.node[125].nic.mac1609_4 	totalBusyTime 	0
scalar MyScenario.node[125].veinsmobility 	startTime 	1
scalar MyScenario.node[125].veinsmobility 	totalTime 	9
scalar MyScenario.node[125].veinsmobility 	stopTime 	11
scalar MyScenario.node[125].veinsmobility 	minSpeed 	2.5279264036333
scalar MyScenario.node[125].veinsmobility 	maxSpeed 	13.234484457527
scalar MyScenario.node[125].veinsmobility 	totalDistance 	83.506541785598
scalar MyScenario.node[125].veinsmobility 	totalCO2Emission 	36.373899426844
scalar MyScenario.node[65].appl 	generatedWSMs 	0
scalar MyScenario.node[65].appl 	receivedWSMs 	0
scalar MyScenario.node[65].appl 	generatedBSMs 	0
scalar MyScenario.node[65].appl 	receivedBSMs 	0
scalar MyScenario.node[65].appl 	generatedWSAs 	0
scalar MyScenario.node[65].appl 	receivedWSAs 	0
scalar MyScenario.node[65].nic.phy80211p 	busyTime 	0
scalar MyScenario.node[65].nic.mac1609_4 	ReceivedUnicastPackets 	0
scalar MyScenario.node[65].nic.mac1609_4 	ReceivedBroadcasts 	0
scalar MyScenario.node[65].nic.mac1609_4 	SentPackets 	0
scalar MyScenario.node[65].nic.mac1609_4 	SNIRLostPackets 	0
scalar MyScenario.node[65].nic.mac1609_4 	RXTXLostPackets 	0
scalar MyScenario.node[65].nic.mac1609_4 	TotalLostPackets 	0
scalar MyScenario.node[65].nic.mac1609_4 	DroppedPacketsInMac 	0
scalar MyScenario.node[65].nic.mac1609_4 	TooLittleTime 	0
scalar MyScenario.node[65].nic.mac1609_4 	TimesIntoBackoff 	0
scalar MyScenario.node[65].nic.mac1609_4 	SlotsBackoff 	0
scalar MyScenario.node[65].nic.mac1609_4 	NumInternalContention 	0
scalar MyScenario.node[65].nic.mac1609_4 	totalBusyTime 	0
scalar MyScenario.node[65].veinsmobility 	startTime 	1
scalar MyScenario.node[65].veinsmobility 	totalTime 	9
scalar MyScenario.node[65].veinsmobility 	stopTime 	11
scalar MyScenario.node[65].veinsmobility 	minSpeed 	2.3453040135093
scalar MyScenario.node[65].veinsmobility 	maxSpeed 	13.849699322949
scalar MyScenario.node[65].veinsmobility 	totalDistance 	79.320090013882
scalar MyScenario.node[65].veinsmobility 	totalCO2Emission 	37.546748126121
scalar MyScenario.node[158].appl 	generatedWSMs 	0
scalar MyScenario.node[158].appl 	receivedWSMs 	0
scalar MyScenario.node[158].appl 	generatedBSMs 	0
scalar MyScenario.node[158].appl 	receivedBSMs 	0
scalar MyScenario.node[158].appl 	generatedWSAs 	0
scalar MyScenario.node[158].appl 	receivedWSAs 	0
scalar MyScenario.node[158].nic.phy80211p 	busyTime 	0
scalar MyScenario.node[158].nic.mac1609_4 	ReceivedUnicastPackets 	0
scalar MyScenario.node[158].nic.mac1609_4 	ReceivedBroadcasts 	0
scalar MyScenario.node[158].nic.mac1609_4 	SentPackets 	0
scalar MyScenario.node[158].nic.mac1609_4 	SNIRLostPackets 	0
scalar MyScenario.node[158].nic.mac1609_4 	RXTXLostPackets 	0
scalar MyScenario.node[158].nic.mac1609_4 	TotalLostPackets 	0
scalar MyScenario.node[158].nic.mac1609_4 	DroppedPacketsInMac 	0
scalar MyScenario.node[158].nic.mac1609_4 	TooLittleTime 	0
scalar MyScenario.node[158].nic.mac1609_4 	TimesIntoBackoff 	0
scalar MyScenario.node[158].nic.mac1609_4 	SlotsBackoff 	0
scalar MyScenario.node[158].nic.mac1609_4 	NumInternalContention 	0
scalar MyScenario.node[158].nic.mac1609_4 	totalBusyTime 	0
scalar MyScenario.node[158].veinsmobility 	startTime 	4
scalar MyScenario.node[158].veinsmobility 	totalTime 	16
scalar MyScenario.node[158].veinsmobility 	stopTime 	21
scalar MyScenario.node[158].veinsmobility 	minSpeed 	1.5689873225056
scalar MyScenario.node[158].veinsmobility 	maxSpeed 	13.841858802224
scalar MyScenario.node[158].veinsmobility 	totalDistance 	172.83549667313
scalar MyScenario.node[158].veinsmobility 	totalCO2Emission 	55.199108918639
scalar MyScenario.node[91].appl 	generatedWSMs 	1
scalar MyScenario.node[91].appl 	receivedWSMs 	7
scalar MyScenario.node[91].appl 	generatedBSMs 	0
scalar MyScenario.node[91].appl 	receivedBSMs 	0
scalar MyScenario.node[91].appl 	generatedWSAs 	0
scalar MyScenario.node[91].appl 	receivedWSAs 	0
scalar MyScenario.node[91].nic.phy80211p 	busyTime 	0.0001392
scalar MyScenario.node[91].nic.mac1609_4 	ReceivedUnicastPackets 	0
scalar MyScenario.node[91].nic.mac1609_4 	ReceivedBroadcasts 	7
scalar MyScenario.node[91].nic.mac1609_4 	SentPackets 	1
scalar MyScenario.node[91].nic.mac1609_4 	SNIRLostPackets 	8
scalar MyScenario.node[91].nic.mac1609_4 	RXTXLostPackets 	13
scalar MyScenario.node[91].nic.mac1609_4 	TotalLostPackets 	21
scalar MyScenario.node[91].nic.mac1609_4 	DroppedPacketsInMac 	0
scalar MyScenario.node[91].nic.mac1609_4 	TooLittleTime 	0
scalar MyScenario.node[91].nic.mac1609_4 	TimesIntoBackoff 	1
scalar MyScenario.node[91].nic.mac1609_4 	SlotsBackoff 	2
scalar MyScenario.node[91].nic.mac1609_4 	NumInternalContention 	0
scalar MyScenario.node[91].nic.mac1609_4 	totalBusyTime 	0.002553130951
scalar MyScenario.node[91].veinsmobility 	startTime 	1
scalar MyScenario.node[91].veinsmobility 	totalTime 	24
scalar MyScenario.node[91].veinsmobility 	stopTime 	26
scalar MyScenario.node[91].veinsmobility 	minSpeed 	1.7912157615414
scalar MyScenario.node[91].veinsmobility 	maxSpeed 	13.899745512847
scalar MyScenario.node[91].veinsmobility 	totalDistance 	277.78222455988
scalar MyScenario.node[91].veinsmobility 	totalCO2Emission 	72.097039120265
scalar MyScenario.node[178].appl 	generatedWSMs 	0
scalar MyScenario.node[178].appl 	receivedWSMs 	0
scalar MyScenario.node[178].appl 	generatedBSMs 	0
scalar MyScenario.node[178].appl 	receivedBSMs 	0
scalar MyScenario.node[178].appl 	generatedWSAs 	0
scalar MyScenario.node[178].appl 	receivedWSAs 	0
scalar MyScenario.node[178].nic.phy80211p 	busyTime 	4.64e-05
scalar MyScenario.node[178].nic.mac1609_4 	ReceivedUnicastPackets 	0
scalar MyScenario.node[178].nic.mac1609_4 	ReceivedBroadcasts 	0
scalar MyScenario.node[178].nic.mac1609_4 	SentPackets 	0
scalar MyScenario.node[178].nic.mac1609_4 	SNIRLostPackets 	6
scalar MyScenario.node[178].nic.mac1609_4 	RXTXLostPackets 	0
scalar MyScenario.node[178].nic.mac1609_4 	TotalLostPackets 	6
scalar MyScenario.node[178].nic.mac1609_4 	DroppedPacketsInMac 	0
scalar MyScenario.node[178].nic.mac1609_4 	TooLittleTime 	0
scalar MyScenario.node[178].nic.mac1609_4 	TimesIntoBackoff 	0
scalar MyScenario.node[178].nic.mac1609_4 	SlotsBackoff 	0
scalar MyScenario.node[178].nic.mac1609_4 	NumInternalContention 	0
scalar MyScenario.node[178].nic.mac1609_4 	totalBusyTime 	0.000696
scalar MyScenario.node[178].veinsmobility 	startTime 	4
scalar MyScenario.node[178].veinsmobility 	totalTime 	29
scalar MyScenario.node[178].veinsmobility 	stopTime 	34
scalar MyScenario.node[178].veinsmobility 	minSpeed 	8.8202213942939e-08
scalar MyScenario.node[178].veinsmobility 	maxSpeed 	13.852879850287
scalar MyScenario.node[178].veinsmobility 	totalDistance 	181.36360523997
scalar MyScenario.node[178].veinsmobility 	totalCO2Emission 	71.415707616257
scalar MyScenario.node[191].appl 	generatedWSMs 	1
scalar MyScenario.node[191].appl 	receivedWSMs 	1
scalar MyScenario.node[191].appl 	generatedBSMs 	0
scalar MyScenario.node[191].appl 	receivedBSMs 	0
scalar MyScenario.node[191].appl 	generatedWSAs 	0
scalar MyScenario.node[191].appl 	receivedWSAs 	0
scalar MyScenario.node[191].nic.phy80211p 	busyTime 	4.9212121212121e-05
scalar MyScenario.node[191].nic.mac1609_4 	ReceivedUnicastPackets 	0
scalar MyScenario.node[191].nic.mac1609_4 	ReceivedBroadcasts 	1
scalar MyScenario.node[191].nic.mac1609_4 	SentPackets 	1
scalar MyScenario.node[191].nic.mac1609_4 	SNIRLostPackets 	6
scalar MyScenario.node[191].nic.mac1609_4 	RXTXLostPackets 	16
scalar MyScenario.node[191].nic.mac1609_4 	TotalLostPackets 	22
scalar MyScenario.node[191].nic.mac1609_4 	DroppedPacketsInMac 	0
scalar MyScenario.node[191].nic.mac1609_4 	TooLittleTime 	0
scalar MyScenario.node[191].nic.mac1609_4 	TimesIntoBackoff 	1
scalar MyScenario.node[191].nic.mac1609_4 	SlotsBackoff 	3
scalar MyScenario.node[191].nic.mac1609_4 	NumInternalContention 	0
scalar MyScenario.node[191].nic.mac1609_4 	totalBusyTime 	0.000697074304
scalar MyScenario.node[191].veinsmobility 	startTime 	4
scalar MyScenario.node[191].veinsmobility 	totalTime 	32
scalar MyScenario.node[191].veinsmobility 	stopTime 	37
scalar MyScenario.node[191].veinsmobility 	minSpeed 	0.086205926633539
scalar MyScenario.node[191].veinsmobility 	maxSpeed 	13.659308861243
scalar MyScenario.node[191].veinsmobility 	totalDistance 	275.62339763202
scalar MyScenario.node[191].veinsmobility 	totalCO2Emission 	93.070877288833
scalar MyScenario.node[151].appl 	generatedWSMs 	1
scalar MyScenario.node[151].appl 	receivedWSMs 	4
scalar MyScenario.node[151].appl 	generatedBSMs 	0
scalar MyScenario.node[151].appl 	receivedBSMs 	0
scalar MyScenario.node[151].appl 	generatedWSAs 	0
scalar MyScenario.node[151].appl 	receivedWSAs 	0
scalar MyScenario.node[151].nic.phy80211p 	busyTime 	0.0001980487804878
scalar MyScenario.node[151].nic.mac1609_4 	ReceivedUnicastPackets 	0
scalar MyScenario.node[151].nic.mac1609_4 	ReceivedBroadcasts 	4
scalar MyScenario.node[151].nic.mac1609_4 	SentPackets 	1
scalar MyScenario.node[151].nic.mac1609_4 	SNIRLostPackets 	31
scalar MyScenario.node[151].nic.mac1609_4 	RXTXLostPackets 	0
scalar MyScenario.node[151].nic.mac1609_4 	TotalLostPackets 	31
scalar MyScenario.node[151].nic.mac1609_4 	DroppedPacketsInMac 	0
scalar MyScenario.node[151].nic.mac1609_4 	TooLittleTime 	0
scalar MyScenario.node[151].nic.mac1609_4 	TimesIntoBackoff 	1
scalar MyScenario.node[151].nic.mac1609_4 	SlotsBackoff 	3
scalar MyScenario.node[151].nic.mac1609_4 	NumInternalContention 	0
scalar MyScenario.node[151].nic.mac1609_4 	totalBusyTime 	0.002553
scalar MyScenario.node[151].veinsmobility 	startTime 	1
scalar MyScenario.node[151].veinsmobility 	totalTime 	40
scalar MyScenario.node[151].veinsmobility 	stopTime 	42
scalar MyScenario.node[151].veinsmobility 	minSpeed 	1.8993853928056
scalar MyScenario.node[151].veinsmobility 	maxSpeed 	13.861934626568
scalar MyScenario.node[151].veinsmobility 	totalDistance 	466.06683923504
scalar MyScenario.node[151].veinsmobility 	totalCO2Emission 	129.99130239562
scalar MyScenario.node[74].appl 	generatedWSMs 	1
scalar MyScenario.node[74].appl 	receivedWSMs 	9
scalar MyScenario.node[74].appl 	generatedBSMs 	0
scalar MyScenario.node[74].appl 	receivedBSMs 	0
scalar MyScenario.node[74].appl 	generatedWSAs 	0
scalar MyScenario.node[74].appl 	receivedWSAs 	0
scalar MyScenario.node[74].nic.phy80211p 	busyTime 	0.000116
scalar MyScenario.node[74].nic.mac1609_4 	ReceivedUnicastPackets 	0
scalar MyScenario.node[74].nic.mac1609_4 	ReceivedBroadcasts 	9
scalar MyScenario.node[74].nic.mac1609_4 	SentPackets 	1
scalar MyScenario.node[74].nic.mac1609_4 	SNIRLostPackets 	12
scalar MyScenario.node[74].nic.mac1609_4 	RXTXLostPackets 	17
scalar MyScenario.node[74].nic.mac1609_4 	TotalLostPackets 	29
scalar MyScenario.node[74].nic.mac1609_4 	DroppedPacketsInMac 	0
scalar MyScenario.node[74].nic.mac1609_4 	TooLittleTime 	0
scalar MyScenario.node[74].nic.mac1609_4 	TimesIntoBackoff 	1
scalar MyScenario.node[74].nic.mac1609_4 	SlotsBackoff 	1
scalar MyScenario.node[74].nic.mac1609_4 	NumInternalContention 	0
scalar MyScenario.node[74].nic.mac1609_4 	totalBusyTime 	0.003249093507
scalar MyScenario.node[74].veinsmobility 	startTime 	1
scalar MyScenario.node[74].veinsmobility 	totalTime 	41
scalar MyScenario.node[74].veinsmobility 	stopTime 	43
scalar MyScenario.node[74].veinsmobility 	minSpeed 	2.2659410497639
scalar MyScenario.node[74].veinsmobility 	maxSpeed 	13.888831441524
scalar MyScenario.node[74].veinsmobility 	totalDistance 	475.46279939161
scalar MyScenario.node[74].veinsmobility 	totalCO2Emission 	129.42755584399
scalar MyScenario.node[103].appl 	generatedWSMs 	1
scalar MyScenario.node[103].appl 	receivedWSMs 	5
scalar MyScenario.node[103].appl 	generatedBSMs 	0
scalar MyScenario.node[103].appl 	receivedBSMs 	0
scalar MyScenario.node[103].appl 	generatedWSAs 	0
scalar MyScenario.node[103].appl 	receivedWSAs 	0
scalar MyScenario.node[103].nic.phy80211p 	busyTime 	0.00014361904761905
scalar MyScenario.node[103].nic.mac1609_4 	ReceivedUnicastPackets 	0
scalar MyScenario.node[103].nic.mac1609_4 	ReceivedBroadcasts 	5
scalar MyScenario.node[103].nic.mac1609_4 	SentPackets 	1
scalar MyScenario.node[103].nic.mac1609_4 	SNIRLostPackets 	21
scalar MyScenario.node[103].nic.mac1609_4 	RXTXLostPackets 	8
scalar MyScenario.node[103].nic.mac1609_4 	TotalLostPackets 	29
scalar MyScenario.node[103].nic.mac1609_4 	DroppedPacketsInMac 	0
scalar MyScenario.node[103].nic.mac1609_4 	TooLittleTime 	0
scalar MyScenario.node[103].nic.mac1609_4 	TimesIntoBackoff 	1
scalar MyScenario.node[103].nic.mac1609_4 	SlotsBackoff 	3
scalar MyScenario.node[103].nic.mac1609_4 	NumInternalContention 	0
scalar MyScenario.node[103].nic.mac1609_4 	totalBusyTime 	0.002089009729
scalar MyScenario.node[103].veinsmobility 	startTime 	1
scalar MyScenario.node[103].veinsmobility 	totalTime 	41
scalar MyScenario.node[103].veinsmobility 	stopTime 	43
scalar MyScenario.node[103].veinsmobility 	minSpeed 	1.6714662429178
scalar MyScenario.node[103].veinsmobility 	maxSpeed 	13.863004399417
scalar MyScenario.node[103].veinsmobility 	totalDistance 	460.23345388298
scalar MyScenario.node[103].veinsmobility 	totalCO2Emission 	142.3934033119
scalar MyScenario.node[187].appl 	generatedWSMs 	0
scalar MyScenario.node[187].appl 	receivedWSMs 	0
scalar MyScenario.node[187].appl 	generatedBSMs 	0
scalar MyScenario.node[187].appl 	receivedBSMs 	0
scalar MyScenario.node[187].appl 	generatedWSAs 	0
scalar MyScenario.node[187].appl 	receivedWSAs 	0
scalar MyScenario.node[187].nic.phy80211p 	busyTime 	3.48e-05
scalar MyScenario.node[187].nic.mac1609_4 	ReceivedUnicastPackets 	0
scalar MyScenario.node[187].nic.mac1609_4 	ReceivedBroadcasts 	0
scalar MyScenario.node[187].nic.mac1609_4 	SentPackets 	0
scalar MyScenario.node[187].nic.mac1609_4 	SNIRLostPackets 	6
scalar MyScenario.node[187].nic.mac1609_4 	RXTXLostPackets 	0
scalar MyScenario.node[187].nic.mac1609_4 	TotalLostPackets 	6
scalar MyScenario.node[187].nic.mac1609_4 	DroppedPacketsInMac 	0
scalar MyScenario.node[187].nic.mac1609_4 	TooLittleTime 	0
scalar MyScenario.node[187].nic.mac1609_4 	TimesIntoBackoff 	0
scalar MyScenario.node[187].nic.mac1609_4 	SlotsBackoff 	0
scalar MyScenario.node[187].nic.mac1609_4 	NumInternalContention 	0
scalar MyScenario.node[187].nic.mac1609_4 	totalBusyTime 	0.000232
scalar MyScenario.node[187].veinsmobility 	startTime 	4
scalar MyScenario.node[187].veinsmobility 	totalTime 	39
scalar MyScenario.node[187].veinsmobility 	stopTime 	44
scalar MyScenario.node[187].veinsmobility 	minSpeed 	0.11873042943747
scalar MyScenario.node[187].veinsmobility 	maxSpeed 	13.885990286688
scalar MyScenario.node[187].veinsmobility 	totalDistance 	372.68384066533
scalar MyScenario.node[187].veinsmobility 	totalCO2Emission 	128.54717173869
scalar MyScenario.node[67].appl 	generatedWSMs 	0
scalar MyScenario.node[67].appl 	receivedWSMs 	0
scalar MyScenario.node[67].appl 	generatedBSMs 	0
scalar MyScenario.node[67].appl 	receivedBSMs 	0
scalar MyScenario.node[67].appl 	generatedWSAs 	0
scalar MyScenario.node[67].appl 	receivedWSAs 	0
scalar MyScenario.node[67].nic.phy80211p 	busyTime 	0.00012948837209302
scalar MyScenario.node[67].nic.mac1609_4 	ReceivedUnicastPackets 	0
scalar MyScenario.node[67].nic.mac1609_4 	ReceivedBroadcasts 	0
scalar MyScenario.node[67].nic.mac1609_4 	SentPackets 	0
scalar MyScenario.node[67].nic.mac1609_4 	SNIRLostPackets 	24
scalar MyScenario.node[67].nic.mac1609_4 	RXTXLostPackets 	0
scalar MyScenario.node[67].nic.mac1609_4 	TotalLostPackets 	24
scalar MyScenario.node[67].nic.mac1609_4 	DroppedPacketsInMac 	0
scalar MyScenario.node[67].nic.mac1609_4 	TooLittleTime 	0
scalar MyScenario.node[67].nic.mac1609_4 	TimesIntoBackoff 	0
scalar MyScenario.node[67].nic.mac1609_4 	SlotsBackoff 	0
scalar MyScenario.node[67].nic.mac1609_4 	NumInternalContention 	0
scalar MyScenario.node[67].nic.mac1609_4 	totalBusyTime 	0.00116
scalar MyScenario.node[67].veinsmobility 	startTime 	1
scalar MyScenario.node[67].veinsmobility 	totalTime 	42
scalar MyScenario.node[67].veinsmobility 	stopTime 	44
scalar MyScenario.node[67].veinsmobility 	minSpeed 	1.8710279575549
scalar MyScenario.node[67].veinsmobility 	maxSpeed 	13.899737892277
scalar MyScenario.node[67].veinsmobility 	totalDistance 	467.3173355447
scalar MyScenario.node[67].veinsmobility 	totalCO2Emission 	137.86372346599
scalar MyScenario.node[139].appl 	generatedWSMs 	1
scalar MyScenario.node[139].appl 	receivedWSMs 	6
scalar MyScenario.node[139].appl 	generatedBSMs 	0
scalar MyScenario.node[139].appl 	receivedBSMs 	0
scalar MyScenario.node[139].appl 	generatedWSAs 	0
scalar MyScenario.node[139].appl 	receivedWSAs 	0
scalar MyScenario.node[139].nic.phy80211p 	busyTime 	0.00010790697674419
scalar MyScenario.node[139].nic.mac1609_4 	ReceivedUnicastPackets 	0
scalar MyScenario.node[139].nic.mac1609_4 	ReceivedBroadcasts 	6
scalar MyScenario.node[139].nic.mac1609_4 	SentPackets 	1
scalar MyScenario.node[139].nic.mac1609_4 	SNIRLostPackets 	14
scalar MyScenario.node[139].nic.mac1609_4 	RXTXLostPackets 	13
scalar MyScenario.node[139].nic.mac1609_4 	TotalLostPackets 	27
scalar MyScenario.node[139].nic.mac1609_4 	DroppedPacketsInMac 	0
scalar MyScenario.node[139].nic.mac1609_4 	TooLittleTime 	0
scalar MyScenario.node[139].nic.mac1609_4 	TimesIntoBackoff 	1
scalar MyScenario.node[139].nic.mac1609_4 	SlotsBackoff 	0
scalar MyScenario.node[139].nic.mac1609_4 	NumInternalContention 	0
scalar MyScenario.node[139].nic.mac1609_4 	totalBusyTime 	0.002553069259
scalar MyScenario.node[139].veinsmobility 	startTime 	1
scalar MyScenario.node[139].veinsmobility 	totalTime 	42
scalar MyScenario.node[139].veinsmobility 	stopTime 	44
scalar MyScenario.node[139].veinsmobility 	minSpeed 	2.3417753344402
scalar MyScenario.node[139].veinsmobility 	maxSpeed 	13.882662565238
scalar MyScenario.node[139].veinsmobility 	totalDistance 	477.91815411823
scalar MyScenario.node[139].veinsmobility 	totalCO2Emission 	143.64280469608
scalar MyScenario.node[111].appl 	generatedWSMs 	1
scalar MyScenario.node[111].appl 	receivedWSMs 	10
scalar MyScenario.node[111].appl 	generatedBSMs 	0
scalar MyScenario.node[111].appl 	receivedBSMs 	0
scalar MyScenario.node[111].appl 	generatedWSAs 	0
scalar MyScenario.node[111].appl 	receivedWSAs 	0
scalar MyScenario.node[111].nic.phy80211p 	busyTime 	0.00012948837209302
scalar MyScenario.node[111].nic.mac1609_4 	ReceivedUnicastPackets 	0
scalar MyScenario.node[111].nic.mac1609_4 	ReceivedBroadcasts 	10
scalar MyScenario.node[111].nic.mac1609_4 	SentPackets 	1
scalar MyScenario.node[111].nic.mac1609_4 	SNIRLostPackets 	14
scalar MyScenario.node[111].nic.mac1609_4 	RXTXLostPackets 	6
scalar MyScenario.node[111].nic.mac1609_4 	TotalLostPackets 	20
scalar MyScenario.node[111].nic.mac1609_4 	DroppedPacketsInMac 	0
scalar MyScenario.node[111].nic.mac1609_4 	TooLittleTime 	0
scalar MyScenario.node[111].nic.mac1609_4 	TimesIntoBackoff 	1
scalar MyScenario.node[111].nic.mac1609_4 	SlotsBackoff 	1
scalar MyScenario.node[111].nic.mac1609_4 	NumInternalContention 	0
scalar MyScenario.node[111].nic.mac1609_4 	totalBusyTime 	0.003249
scalar MyScenario.node[111].veinsmobility 	startTime 	1
scalar MyScenario.node[111].veinsmobility 	totalTime 	42
scalar MyScenario.node[111].veinsmobility 	stopTime 	44
scalar MyScenario.node[111].veinsmobility 	minSpeed 	1.9429106110707
scalar MyScenario.node[111].veinsmobility 	maxSpeed 	13.860908302199
scalar MyScenario.node[111].veinsmobility 	totalDistance 	475.83338941253
scalar MyScenario.node[111].veinsmobility 	totalCO2Emission 	122.49192514355
scalar MyScenario.node[16].appl 	generatedWSMs 	0
scalar MyScenario.node[16].appl 	receivedWSMs 	0
scalar MyScenario.node[16].appl 	generatedBSMs 	0
scalar MyScenario.node[16].appl 	receivedBSMs 	0
scalar MyScenario.node[16].appl 	generatedWSAs 	0
scalar MyScenario.node[16].appl 	receivedWSAs 	0
scalar MyScenario.node[16].nic.phy80211p 	busyTime 	7.0139534883721e-05
scalar MyScenario.node[16].nic.mac1609_4 	ReceivedUnicastPackets 	0
scalar MyScenario.node[16].nic.mac1609_4 	ReceivedBroadcasts 	0
scalar MyScenario.node[16].nic.mac1609_4 	SentPackets 	0
scalar MyScenario.node[16].nic.mac1609_4 	SNIRLostPackets 	13
scalar MyScenario.node[16].nic.mac1609_4 	RXTXLostPackets 	0
scalar MyScenario.node[16].nic.mac1609_4 	TotalLostPackets 	13
scalar MyScenario.node[16].nic.mac1609_4 	DroppedPacketsInMac 	0
scalar MyScenario.node[16].nic.mac1609_4 	TooLittleTime 	0
scalar MyScenario.node[16].nic.mac1609_4 	TimesIntoBackoff 	0
scalar MyScenario.node[16].nic.mac1609_4 	SlotsBackoff 	0
scalar MyScenario.node[16].nic.mac1609_4 	NumInternalContention 	0
scalar MyScenario.node[16].nic.mac1609_4 	totalBusyTime 	0.000232
scalar MyScenario.node[16].veinsmobility 	startTime 	1
scalar MyScenario.node[16].veinsmobility 	totalTime 	42
scalar MyScenario.node[16].veinsmobility 	stopTime 	44
scalar MyScenario.node[16].veinsmobility 	minSpeed 	1.7067293056287
scalar MyScenario.node[16].veinsmobility 	maxSpeed 	13.880129366252
scalar MyScenario.node[16].veinsmobility 	totalDistance 	473.5207901682
scalar MyScenario.node[16].veinsmobility 	totalCO2Emission 	138.5871765867
scalar MyScenario.node[62].appl 	generatedWSMs 	0
scalar MyScenario.node[62].appl 	receivedWSMs 	0
scalar MyScenario.node[62].appl 	generatedBSMs 	0
scalar MyScenario.node[62].appl 	receivedBSMs 	0
scalar MyScenario.node[62].appl 	generatedWSAs 	0
scalar MyScenario.node[62].appl 	receivedWSAs 	0
scalar MyScenario.node[62].nic.phy80211p 	busyTime 	2.1581395348837e-05
scalar MyScenario.node[62].nic.mac1609_4 	ReceivedUnicastPackets 	0
scalar MyScenario.node[62].nic.mac1609_4 	ReceivedBroadcasts 	0
scalar MyScenario.node[62].nic.mac1609_4 	SentPackets 	0
scalar MyScenario.node[62].nic.mac1609_4 	SNIRLostPackets 	4
scalar MyScenario.node[62].nic.mac1609_4 	RXTXLostPackets 	0
scalar MyScenario.node[62].nic.mac1609_4 	TotalLostPackets 	4
scalar MyScenario.node[62].nic.mac1609_4 	DroppedPacketsInMac 	0
scalar MyScenario.node[62].nic.mac1609_4 	TooLittleTime 	0
scalar MyScenario.node[62].nic.mac1609_4 	TimesIntoBackoff 	0
scalar MyScenario.node[62].nic.mac1609_4 	SlotsBackoff 	0
scalar MyScenario.node[62].nic.mac1609_4 	NumInternalContention 	0
scalar MyScenario.node[62].nic.mac1609_4 	totalBusyTime 	0.000232
scalar MyScenario.node[62].veinsmobility 	startTime 	1
scalar MyScenario.node[62].veinsmobility 	totalTime 	42
scalar MyScenario.node[62].veinsmobility 	stopTime 	44
scalar MyScenario.node[62].veinsmobility 	minSpeed 	1.9695103733102
scalar MyScenario.node[62].veinsmobility 	maxSpeed 	13.895380945574
scalar MyScenario.node[62].veinsmobility 	totalDistance 	472.15813297247
scalar MyScenario.node[62].veinsmobility 	totalCO2Emission 	126.61646616158
scalar MyScenario.node[57].appl 	generatedWSMs 	1
scalar MyScenario.node[57].appl 	receivedWSMs 	9
scalar MyScenario.node[57].appl 	generatedBSMs 	0
scalar MyScenario.node[57].appl 	receivedBSMs 	0
scalar MyScenario.node[57].appl 	generatedWSAs 	0
scalar MyScenario.node[57].appl 	receivedWSAs 	0
scalar MyScenario.node[57].nic.phy80211p 	busyTime 	0.00020563636363636
scalar MyScenario.node[57].nic.mac1609_4 	ReceivedUnicastPackets 	0
scalar MyScenario.node[57].nic.mac1609_4 	ReceivedBroadcasts 	9
scalar MyScenario.node[57].nic.mac1609_4 	SentPackets 	1
scalar MyScenario.node[57].nic.mac1609_4 	SNIRLostPackets 	30
scalar MyScenario.node[57].nic.mac1609_4 	RXTXLostPackets 	21
scalar MyScenario.node[57].nic.mac1609_4 	TotalLostPackets 	51
scalar MyScenario.node[57].nic.mac1609_4 	DroppedPacketsInMac 	0
scalar MyScenario.node[57].nic.mac1609_4 	TooLittleTime 	0
scalar MyScenario.node[57].nic.mac1609_4 	TimesIntoBackoff 	1
scalar MyScenario.node[57].nic.mac1609_4 	SlotsBackoff 	0
scalar MyScenario.node[57].nic.mac1609_4 	NumInternalContention 	0
scalar MyScenario.node[57].nic.mac1609_4 	totalBusyTime 	0.003481538446
scalar MyScenario.node[57].veinsmobility 	startTime 	1
scalar MyScenario.node[57].veinsmobility 	totalTime 	43
scalar MyScenario.node[57].veinsmobility 	stopTime 	45
scalar MyScenario.node[57].veinsmobility 	minSpeed 	1.6503641424937
scalar MyScenario.node[57].veinsmobility 	maxSpeed 	13.891894838726
scalar MyScenario.node[57].veinsmobility 	totalDistance 	474.45639102148
scalar MyScenario.node[57].veinsmobility 	totalCO2Emission 	129.33355984831
scalar MyScenario.node[28].appl 	generatedWSMs 	1
scalar MyScenario.node[28].appl 	receivedWSMs 	11
scalar MyScenario.node[28].appl 	generatedBSMs 	0
scalar MyScenario.node[28].appl 	receivedBSMs 	0
scalar MyScenario.node[28].appl 	generatedWSAs 	0
scalar MyScenario.node[28].appl 	receivedWSAs 	0
scalar MyScenario.node[28].nic.phy80211p 	busyTime 	0.00014236363636364
scalar MyScenario.node[28].nic.mac1609_4 	ReceivedUnicastPackets 	0
scalar MyScenario.node[28].nic.mac1609_4 	ReceivedBroadcasts 	11
scalar MyScenario.node[28].nic.mac1609_4 	SentPackets 	1
scalar MyScenario.node[28].nic.mac1609_4 	SNIRLostPackets 	16
scalar MyScenario.node[28].nic.mac1609_4 	RXTXLostPackets 	17
scalar MyScenario.node[28].nic.mac1609_4 	TotalLostPackets 	33
scalar MyScenario.node[28].nic.mac1609_4 	DroppedPacketsInMac 	0
scalar MyScenario.node[28].nic.mac1609_4 	TooLittleTime 	0
scalar MyScenario.node[28].nic.mac1609_4 	TimesIntoBackoff 	1
scalar MyScenario.node[28].nic.mac1609_4 	SlotsBackoff 	1
scalar MyScenario.node[28].nic.mac1609_4 	NumInternalContention 	0
scalar MyScenario.node[28].nic.mac1609_4 	totalBusyTime 	0.003713031331
scalar MyScenario.node[28].veinsmobility 	startTime 	1
scalar MyScenario.node[28].veinsmobility 	totalTime 	43
scalar MyScenario.node[28].veinsmobility 	stopTime 	45
scalar MyScenario.node[28].veinsmobility 	minSpeed 	1.541286686633
scalar MyScenario.node[28].veinsmobility 	maxSpeed 	13.867096629599
scalar MyScenario.node[28].veinsmobility 	totalDistance 	477.64160853321
scalar MyScenario.node[28].veinsmobility 	totalCO2Emission 	131.05510631813
scalar MyScenario.node[87].appl 	generatedWSMs 	0
scalar MyScenario.node[87].appl 	receivedWSMs 	0
scalar MyScenario.node[87].appl 	generatedBSMs 	0
scalar MyScenario.node[87].appl 	receivedBSMs 	0
scalar MyScenario.node[87].appl 	generatedWSAs 	0
scalar MyScenario.node[87].appl 	receivedWSAs 	0
scalar MyScenario.node[87].nic.phy80211p 	busyTime 	5.1555555555556e-05
scalar MyScenario.node[87].nic.mac1609_4 	ReceivedUnicastPackets 	0
scalar MyScenario.node[87].nic.mac1609_4 	ReceivedBroadcasts 	0
scalar MyScenario.node[87].nic.mac1609_4 	SentPackets 	0
scalar MyScenario.node[87].nic.mac1609_4 	SNIRLostPackets 	10
scalar MyScenario.node[87].nic.mac1609_4 	RXTXLostPackets 	0
scalar MyScenario.node[87].nic.mac1609_4 	TotalLostPackets 	10
scalar MyScenario.node[87].nic.mac1609_4 	DroppedPacketsInMac 	0
scalar MyScenario.node[87].nic.mac1609_4 	TooLittleTime 	0
scalar MyScenario.node[87].nic.mac1609_4 	TimesIntoBackoff 	0
scalar MyScenario.node[87].nic.mac1609_4 	SlotsBackoff 	0
scalar MyScenario.node[87].nic.mac1609_4 	NumInternalContention 	0
scalar MyScenario.node[87].nic.mac1609_4 	totalBusyTime 	0.000696
scalar MyScenario.node[87].veinsmobility 	startTime 	1
scalar MyScenario.node[87].veinsmobility 	totalTime 	44
scalar MyScenario.node[87].veinsmobility 	stopTime 	46
scalar MyScenario.node[87].veinsmobility 	minSpeed 	0.0091251947898258
scalar MyScenario.node[87].veinsmobility 	maxSpeed 	13.8319057188
scalar MyScenario.node[87].veinsmobility 	totalDistance 	365.66410864729
scalar MyScenario.node[87].veinsmobility 	totalCO2Emission 	151.10015039689
scalar MyScenario.node[149].appl 	generatedWSMs 	0
scalar MyScenario.node[149].appl 	receivedWSMs 	0
scalar MyScenario.node[149].appl 	generatedBSMs 	0
scalar MyScenario.node[149].appl 	receivedBSMs 	0
scalar MyScenario.node[149].appl 	generatedWSAs 	0
scalar MyScenario.node[149].appl 	receivedWSAs 	0
scalar MyScenario.node[149].nic.phy80211p 	busyTime 	1.0311111111111e-05
scalar MyScenario.node[149].nic.mac1609_4 	ReceivedUnicastPackets 	0
scalar MyScenario.node[149].nic.mac1609_4 	ReceivedBroadcasts 	0
scalar MyScenario.node[149].nic.mac1609_4 	SentPackets 	0
scalar MyScenario.node[149].nic.mac1609_4 	SNIRLostPackets 	2
scalar MyScenario.node[149].nic.mac1609_4 	RXTXLostPackets 	0
scalar MyScenario.node[149].nic.mac1609_4 	TotalLostPackets 	2
scalar MyScenario.node[149].nic.mac1609_4 	DroppedPacketsInMac 	0
scalar MyScenario.node[149].nic.mac1609_4 	TooLittleTime 	0
scalar MyScenario.node[149].nic.mac1609_4 	TimesIntoBackoff 	0
scalar MyScenario.node[149].nic.mac1609_4 	SlotsBackoff 	0
scalar MyScenario.node[149].nic.mac1609_4 	NumInternalContention 	0
scalar MyScenario.node[149].nic.mac1609_4 	totalBusyTime 	0.000232
scalar MyScenario.node[149].veinsmobility 	startTime 	1
scalar MyScenario.node[149].veinsmobility 	totalTime 	44
scalar MyScenario.node[149].veinsmobility 	stopTime 	46
scalar MyScenario.node[149].veinsmobility 	minSpeed 	1.8306294062641
scalar MyScenario.node[149].veinsmobility 	maxSpeed 	13.806009634514
scalar MyScenario.node[149].veinsmobility 	totalDistance 	474.83512705238
scalar MyScenario.node[149].veinsmobility 	totalCO2Emission 	148.03389626397
scalar MyScenario.node[175].appl 	generatedWSMs 	0
scalar MyScenario.node[175].appl 	receivedWSMs 	0
scalar MyScenario.node[175].appl 	generatedBSMs 	0
scalar MyScenario.node[175].appl 	receivedBSMs 	0
scalar MyScenario.node[175].appl 	generatedWSAs 	0
scalar MyScenario.node[175].appl 	receivedWSAs 	0
scalar MyScenario.node[175].nic.phy80211p 	busyTime 	4.8558139534884e-05
scalar MyScenario.node[175].nic.mac1609_4 	ReceivedUnicastPackets 	0
scalar MyScenario.node[175].nic.mac1609_4 	ReceivedBroadcasts 	0
scalar MyScenario.node[175].nic.mac1609_4 	SentPackets 	0
scalar MyScenario.node[175].nic.mac1609_4 	SNIRLostPackets 	9
scalar MyScenario.node[175].nic.mac1609_4 	RXTXLostPackets 	0
scalar MyScenario.node[175].nic.mac1609_4 	TotalLostPackets 	9
scalar MyScenario.node[175].nic.mac1609_4 	DroppedPacketsInMac 	0
scalar MyScenario.node[175].nic.mac1609_4 	TooLittleTime 	0
scalar MyScenario.node[175].nic.mac1609_4 	TimesIntoBackoff 	0
scalar MyScenario.node[175].nic.mac1609_4 	SlotsBackoff 	0
scalar MyScenario.node[175].nic.mac1609_4 	NumInternalContention 	0
scalar MyScenario.node[175].nic.mac1609_4 	totalBusyTime 	0.000464
scalar MyScenario.node[175].veinsmobility 	startTime 	4
scalar MyScenario.node[175].veinsmobility 	totalTime 	42
scalar MyScenario.node[175].veinsmobility 	stopTime 	47
scalar MyScenario.node[175].veinsmobility 	minSpeed 	2.5673345795367
scalar MyScenario.node[175].veinsmobility 	maxSpeed 	13.892537658964
scalar MyScenario.node[175].veinsmobility 	totalDistance 	465.38790424254
scalar MyScenario.node[175].veinsmobility 	totalCO2Emission 	148.82055318561
scalar MyScenario.node[17].appl 	generatedWSMs 	1
scalar MyScenario.node[17].appl 	receivedWSMs 	16
scalar MyScenario.node[17].appl 	generatedBSMs 	0
scalar MyScenario.node[17].appl 	receivedBSMs 	0
scalar MyScenario.node[17].appl 	generatedWSAs 	0
scalar MyScenario.node[17].appl 	receivedWSAs 	0
scalar MyScenario.node[17].nic.phy80211p 	busyTime 	0.00011846808510638
scalar MyScenario.node[17].nic.mac1609_4 	ReceivedUnicastPackets 	0
scalar MyScenario.node[17].nic.mac1609_4 	ReceivedBroadcasts 	16
scalar MyScenario.node[17].nic.mac1609_4 	SentPackets 	1
scalar MyScenario.node[17].nic.mac1609_4 	SNIRLostPackets 	8
scalar MyScenario.node[17].nic.mac1609_4 	RXTXLostPackets 	14
scalar MyScenario.node[17].nic.mac1609_4 	TotalLostPackets 	22
scalar MyScenario.node[17].nic.mac1609_4 	DroppedPacketsInMac 	0
scalar MyScenario.node[17].nic.mac1609_4 	TooLittleTime 	0
scalar MyScenario.node[17].nic.mac1609_4 	TimesIntoBackoff 	1
scalar MyScenario.node[17].nic.mac1609_4 	SlotsBackoff 	3
scalar MyScenario.node[17].nic.mac1609_4 	NumInternalContention 	0
scalar MyScenario.node[17].nic.mac1609_4 	totalBusyTime 	0.004409057142
scalar MyScenario.node[17].veinsmobility 	startTime 	1
scalar MyScenario.node[17].veinsmobility 	totalTime 	46
scalar MyScenario.node[17].veinsmobility 	stopTime 	48
scalar MyScenario.node[17].veinsmobility 	minSpeed 	1.435967756586
scalar MyScenario.node[17].veinsmobility 	maxSpeed 	13.88864343497
scalar MyScenario.node[17].veinsmobility 	totalDistance 	469.98677108464
scalar MyScenario.node[17].veinsmobility 	totalCO2Emission 	160.68062356015
scalar MyScenario.node[168].appl 	generatedWSMs 	1
scalar MyScenario.node[168].appl 	receivedWSMs 	1
scalar MyScenario.node[168].appl 	generatedBSMs 	0
scalar MyScenario.node[168].appl 	receivedBSMs 	0
scalar MyScenario.node[168].appl 	generatedWSAs 	0
scalar MyScenario.node[168].appl 	receivedWSAs 	0
scalar MyScenario.node[168].nic.phy80211p 	busyTime 	2.0173913043478e-05
scalar MyScenario.node[168].nic.mac1609_4 	ReceivedUnicastPackets 	0
scalar MyScenario.node[168].nic.mac1609_4 	ReceivedBroadcasts 	1
scalar MyScenario.node[168].nic.mac1609_4 	SentPackets 	1
scalar MyScenario.node[168].nic.mac1609_4 	SNIRLostPackets 	3
scalar MyScenario.node[168].nic.mac1609_4 	RXTXLostPackets 	12
scalar MyScenario.node[168].nic.mac1609_4 	TotalLostPackets 	15
scalar MyScenario.node[168].nic.mac1609_4 	DroppedPacketsInMac 	0
scalar MyScenario.node[168].nic.mac1609_4 	TooLittleTime 	0
scalar MyScenario.node[168].nic.mac1609_4 	TimesIntoBackoff 	1
scalar MyScenario.node[168].nic.mac1609_4 	SlotsBackoff 	0
scalar MyScenario.node[168].nic.mac1609_4 	NumInternalContention 	0
scalar MyScenario.node[168].nic.mac1609_4 	totalBusyTime 	0.000697
scalar MyScenario.node[168].veinsmobility 	startTime 	4
scalar MyScenario.node[168].veinsmobility 	totalTime 	45
scalar MyScenario.node[168].veinsmobility 	stopTime 	50
scalar MyScenario.node[168].veinsmobility 	minSpeed 	2.1343176096911
scalar MyScenario.node[168].veinsmobility 	maxSpeed 	13.843386677069
scalar MyScenario.node[168].veinsmobility 	totalDistance 	462.73379175321
scalar MyScenario.node[168].veinsmobility 	totalCO2Emission 	161.70185192327
scalar MyScenario.node[126].appl 	generatedWSMs 	1
scalar MyScenario.node[126].appl 	receivedWSMs 	1
scalar MyScenario.node[126].appl 	generatedBSMs 	0
scalar MyScenario.node[126].appl 	receivedBSMs 	0
scalar MyScenario.node[126].appl 	generatedWSAs 	0
scalar MyScenario.node[126].appl 	receivedWSAs 	0
scalar MyScenario.node[126].nic.phy80211p 	busyTime 	4.734693877551e-05
scalar MyScenario.node[126].nic.mac1609_4 	ReceivedUnicastPackets 	0
scalar MyScenario.node[126].nic.mac1609_4 	ReceivedBroadcasts 	1
scalar MyScenario.node[126].nic.mac1609_4 	SentPackets 	1
scalar MyScenario.node[126].nic.mac1609_4 	SNIRLostPackets 	9
scalar MyScenario.node[126].nic.mac1609_4 	RXTXLostPackets 	11
scalar MyScenario.node[126].nic.mac1609_4 	TotalLostPackets 	20
scalar MyScenario.node[126].nic.mac1609_4 	DroppedPacketsInMac 	0
scalar MyScenario.node[126].nic.mac1609_4 	TooLittleTime 	0
scalar MyScenario.node[126].nic.mac1609_4 	TimesIntoBackoff 	1
scalar MyScenario.node[126].nic.mac1609_4 	SlotsBackoff 	3
scalar MyScenario.node[126].nic.mac1609_4 	NumInternalContention 	0
scalar MyScenario.node[126].nic.mac1609_4 	totalBusyTime 	0.000929136574
scalar MyScenario.node[126].veinsmobility 	startTime 	1
scalar MyScenario.node[126].veinsmobility 	totalTime 	48
scalar MyScenario.node[126].veinsmobility 	stopTime 	50
scalar MyScenario.node[126].veinsmobility 	minSpeed 	1.5237437765813
scalar MyScenario.node[126].veinsmobility 	maxSpeed 	13.833317806199
scalar MyScenario.node[126].veinsmobility 	totalDistance 	559.23614574468
scalar MyScenario.node[126].veinsmobility 	totalCO2Emission 	139.71459052171
scalar MyScenario.node[7].appl 	generatedWSMs 	0
scalar MyScenario.node[7].appl 	receivedWSMs 	0
scalar MyScenario.node[7].appl 	generatedBSMs 	0
scalar MyScenario.node[7].appl 	receivedBSMs 	0
scalar MyScenario.node[7].appl 	generatedWSAs 	0
scalar MyScenario.node[7].appl 	receivedWSAs 	0
scalar MyScenario.node[7].nic.phy80211p 	busyTime 	2.32e-05
scalar MyScenario.node[7].nic.mac1609_4 	ReceivedUnicastPackets 	0
scalar MyScenario.node[7].nic.mac1609_4 	ReceivedBroadcasts 	0
scalar MyScenario.node[7].nic.mac1609_4 	SentPackets 	0
scalar MyScenario.node[7].nic.mac1609_4 	SNIRLostPackets 	5
scalar MyScenario.node[7].nic.mac1609_4 	RXTXLostPackets 	0
scalar MyScenario.node[7].nic.mac1609_4 	TotalLostPackets 	5
scalar MyScenario.node[7].nic.mac1609_4 	DroppedPacketsInMac 	0
scalar MyScenario.node[7].nic.mac1609_4 	TooLittleTime 	0
scalar MyScenario.node[7].nic.mac1609_4 	TimesIntoBackoff 	0
scalar MyScenario.node[7].nic.mac1609_4 	SlotsBackoff 	0
scalar MyScenario.node[7].nic.mac1609_4 	NumInternalContention 	0
scalar MyScenario.node[7].nic.mac1609_4 	totalBusyTime 	0.000232
scalar MyScenario.node[7].veinsmobility 	startTime 	1
scalar MyScenario.node[7].veinsmobility 	totalTime 	49
scalar MyScenario.node[7].veinsmobility 	stopTime 	51
scalar MyScenario.node[7].veinsmobility 	minSpeed 	2.4237201584037
scalar MyScenario.node[7].veinsmobility 	maxSpeed 	13.89661136393
scalar MyScenario.node[7].veinsmobility 	totalDistance 	549.4985464881
scalar MyScenario.node[7].veinsmobility 	totalCO2Emission 	154.62168357551
scalar MyScenario.node[98].appl 	generatedWSMs 	0
scalar MyScenario.node[98].appl 	receivedWSMs 	0
scalar MyScenario.node[98].appl 	generatedBSMs 	0
scalar MyScenario.node[98].appl 	receivedBSMs 	0
scalar MyScenario.node[98].appl 	generatedWSAs 	0
scalar MyScenario.node[98].appl 	receivedWSAs 	0
scalar MyScenario.node[98].nic.phy80211p 	busyTime 	6.96e-05
scalar MyScenario.node[98].nic.mac1609_4 	ReceivedUnicastPackets 	0
scalar MyScenario.node[98].nic.mac1609_4 	ReceivedBroadcasts 	0
scalar MyScenario.node[98].nic.mac1609_4 	SentPackets 	0
scalar MyScenario.node[98].nic.mac1609_4 	SNIRLostPackets 	15
scalar MyScenario.node[98].nic.mac1609_4 	RXTXLostPackets 	0
scalar MyScenario.node[98].nic.mac1609_4 	TotalLostPackets 	15
scalar MyScenario.node[98].nic.mac1609_4 	DroppedPacketsInMac 	0
scalar MyScenario.node[98].nic.mac1609_4 	TooLittleTime 	0
scalar MyScenario.node[98].nic.mac1609_4 	TimesIntoBackoff 	0
scalar MyScenario.node[98].nic.mac1609_4 	SlotsBackoff 	0
scalar MyScenario.node[98].nic.mac1609_4 	NumInternalContention 	0
scalar MyScenario.node[98].nic.mac1609_4 	totalBusyTime 	0.000928
scalar MyScenario.node[98].veinsmobility 	startTime 	1
scalar MyScenario.node[98].veinsmobility 	totalTime 	49
scalar MyScenario.node[98].veinsmobility 	stopTime 	51
scalar MyScenario.node[98].veinsmobility 	minSpeed 	1.6416986882919
scalar MyScenario.node[98].veinsmobility 	maxSpeed 	13.867106297798
scalar MyScenario.node[98].veinsmobility 	totalDistance 	566.51760405745
scalar MyScenario.node[98].veinsmobility 	totalCO2Emission 	140.20685488322
scalar MyScenario.node[77].appl 	generatedWSMs 	0
scalar MyScenario.node[77].appl 	receivedWSMs 	0
scalar MyScenario.node[77].appl 	generatedBSMs 	0
scalar MyScenario.node[77].appl 	receivedBSMs 	0
scalar MyScenario.node[77].appl 	generatedWSAs 	0
scalar MyScenario.node[77].appl 	receivedWSAs 	0
scalar MyScenario.node[77].nic.phy80211p 	busyTime 	5.0039215686275e-05
scalar MyScenario.node[77].nic.mac1609_4 	ReceivedUnicastPackets 	0
scalar MyScenario.node[77].nic.mac1609_4 	ReceivedBroadcasts 	0
scalar MyScenario.node[77].nic.mac1609_4 	SentPackets 	0
scalar MyScenario.node[77].nic.mac1609_4 	SNIRLostPackets 	11
scalar MyScenario.node[77].nic.mac1609_4 	RXTXLostPackets 	0
scalar MyScenario.node[77].nic.mac1609_4 	TotalLostPackets 	11
scalar MyScenario.node[77].nic.mac1609_4 	DroppedPacketsInMac 	0
scalar MyScenario.node[77].nic.mac1609_4 	TooLittleTime 	0
scalar MyScenario.node[77].nic.mac1609_4 	TimesIntoBackoff 	0
scalar MyScenario.node[77].nic.mac1609_4 	SlotsBackoff 	0
scalar MyScenario.node[77].nic.mac1609_4 	NumInternalContention 	0
scalar MyScenario.node[77].nic.mac1609_4 	totalBusyTime 	0.000464
scalar MyScenario.node[77].veinsmobility 	startTime 	1
scalar MyScenario.node[77].veinsmobility 	totalTime 	50
scalar MyScenario.node[77].veinsmobility 	stopTime 	52
scalar MyScenario.node[77].veinsmobility 	minSpeed 	0.0082014551251629
scalar MyScenario.node[77].veinsmobility 	maxSpeed 	13.882747402764
scalar MyScenario.node[77].veinsmobility 	totalDistance 	460.47137887348
scalar MyScenario.node[77].veinsmobility 	totalCO2Emission 	157.25952343364
scalar MyScenario.node[121].appl 	generatedWSMs 	0
scalar MyScenario.node[121].appl 	receivedWSMs 	0
scalar MyScenario.node[121].appl 	generatedBSMs 	0
scalar MyScenario.node[121].appl 	receivedBSMs 	0
scalar MyScenario.node[121].appl 	generatedWSAs 	0
scalar MyScenario.node[121].appl 	receivedWSAs 	0
scalar MyScenario.node[121].nic.phy80211p 	busyTime 	0
scalar MyScenario.node[121].nic.mac1609_4 	ReceivedUnicastPackets 	0
scalar MyScenario.node[121].nic.mac1609_4 	ReceivedBroadcasts 	0
scalar MyScenario.node[121].nic.mac1609_4 	SentPackets 	0
scalar MyScenario.node[121].nic.mac1609_4 	SNIRLostPackets 	0
scalar MyScenario.node[121].nic.mac1609_4 	RXTXLostPackets 	0
scalar MyScenario.node[121].nic.mac1609_4 	TotalLostPackets 	0
scalar MyScenario.node[121].nic.mac1609_4 	DroppedPacketsInMac 	0
scalar MyScenario.node[121].nic.mac1609_4 	TooLittleTime 	0
scalar MyScenario.node[121].nic.mac1609_4 	TimesIntoBackoff 	0
scalar MyScenario.node[121].nic.mac1609_4 	SlotsBackoff 	0
scalar MyScenario.node[121].nic.mac1609_4 	NumInternalContention 	0
scalar MyScenario.node[121].nic.mac1609_4 	totalBusyTime 	0
scalar MyScenario.node[121].veinsmobility 	startTime 	1
scalar MyScenario.node[121].veinsmobility 	totalTime 	50
scalar MyScenario.node[121].veinsmobility 	stopTime 	52
scalar MyScenario.node[121].veinsmobility 	minSpeed 	1.3033991336124
scalar MyScenario.node[121].veinsmobility 	maxSpeed 	13.89025049964
scalar MyScenario.node[121].veinsmobility 	totalDistance 	565.07805448319
scalar MyScenario.node[121].veinsmobility 	totalCO2Emission 	153.56219974587
scalar MyScenario.node[124].appl 	generatedWSMs 	1
scalar MyScenario.node[124].appl 	receivedWSMs 	10
scalar MyScenario.node[124].appl 	generatedBSMs 	0
scalar MyScenario.node[124].appl 	receivedBSMs 	0
scalar MyScenario.node[124].appl 	generatedWSAs 	0
scalar MyScenario.node[124].appl 	receivedWSAs 	0
scalar MyScenario.node[124].nic.phy80211p 	busyTime 	0.00010261538461538
scalar MyScenario.node[124].nic.mac1609_4 	ReceivedUnicastPackets 	0
scalar MyScenario.node[124].nic.mac1609_4 	ReceivedBroadcasts 	10
scalar MyScenario.node[124].nic.mac1609_4 	SentPackets 	1
scalar MyScenario.node[124].nic.mac1609_4 	SNIRLostPackets 	13
scalar MyScenario.node[124].nic.mac1609_4 	RXTXLostPackets 	4
scalar MyScenario.node[124].nic.mac1609_4 	TotalLostPackets 	17
scalar MyScenario.node[124].nic.mac1609_4 	DroppedPacketsInMac 	0
scalar MyScenario.node[124].nic.mac1609_4 	TooLittleTime 	0
scalar MyScenario.node[124].nic.mac1609_4 	TimesIntoBackoff 	1
scalar MyScenario.node[124].nic.mac1609_4 	SlotsBackoff 	2
scalar MyScenario.node[124].nic.mac1609_4 	NumInternalContention 	0
scalar MyScenario.node[124].nic.mac1609_4 	totalBusyTime 	0.003945
scalar MyScenario.node[124].veinsmobility 	startTime 	1
scalar MyScenario.node[124].veinsmobility 	totalTime 	51
scalar MyScenario.node[124].veinsmobility 	stopTime 	53
scalar MyScenario.node[124].veinsmobility 	minSpeed 	0.0047890953642306
scalar MyScenario.node[124].veinsmobility 	maxSpeed 	13.771883321949
scalar MyScenario.node[124].veinsmobility 	totalDistance 	471.75204408625
scalar MyScenario.node[124].veinsmobility 	totalCO2Emission 	171.88501170579
scalar MyScenario.node[99].appl 	generatedWSMs 	1
scalar MyScenario.node[99].appl 	receivedWSMs 	1
scalar MyScenario.node[99].appl 	generatedBSMs 	0
scalar MyScenario.node[99].appl 	receivedBSMs 	0
scalar MyScenario.node[99].appl 	generatedWSAs 	0
scalar MyScenario.node[99].appl 	receivedWSAs 	0
scalar MyScenario.node[99].nic.phy80211p 	busyTime 	8.4769230769231e-05
scalar MyScenario.node[99].nic.mac1609_4 	ReceivedUnicastPackets 	0
scalar MyScenario.node[99].nic.mac1609_4 	ReceivedBroadcasts 	1
scalar MyScenario.node[99].nic.mac1609_4 	SentPackets 	1
scalar MyScenario.node[99].nic.mac1609_4 	SNIRLostPackets 	18
scalar MyScenario.node[99].nic.mac1609_4 	RXTXLostPackets 	15
scalar MyScenario.node[99].nic.mac1609_4 	TotalLostPackets 	33
scalar MyScenario.node[99].nic.mac1609_4 	DroppedPacketsInMac 	0
scalar MyScenario.node[99].nic.mac1609_4 	TooLittleTime 	0
scalar MyScenario.node[99].nic.mac1609_4 	TimesIntoBackoff 	1
scalar MyScenario.node[99].nic.mac1609_4 	SlotsBackoff 	1
scalar MyScenario.node[99].nic.mac1609_4 	NumInternalContention 	0
scalar MyScenario.node[99].nic.mac1609_4 	totalBusyTime 	0.001161
scalar MyScenario.node[99].veinsmobility 	startTime 	1
scalar MyScenario.node[99].veinsmobility 	totalTime 	51
scalar MyScenario.node[99].veinsmobility 	stopTime 	53
scalar MyScenario.node[99].veinsmobility 	minSpeed 	2.5788089866051
scalar MyScenario.node[99].veinsmobility 	maxSpeed 	13.733923607692
scalar MyScenario.node[99].veinsmobility 	totalDistance 	568.24161859166
scalar MyScenario.node[99].veinsmobility 	totalCO2Emission 	160.06002996186
scalar MyScenario.node[29].appl 	generatedWSMs 	1
scalar MyScenario.node[29].appl 	receivedWSMs 	1
scalar MyScenario.node[29].appl 	generatedBSMs 	0
scalar MyScenario.node[29].appl 	receivedBSMs 	0
scalar MyScenario.node[29].appl 	generatedWSAs 	0
scalar MyScenario.node[29].appl 	receivedWSAs 	0
scalar MyScenario.node[29].nic.phy80211p 	busyTime 	9.1924528301887e-05
scalar MyScenario.node[29].nic.mac1609_4 	ReceivedUnicastPackets 	0
scalar MyScenario.node[29].nic.mac1609_4 	ReceivedBroadcasts 	1
scalar MyScenario.node[29].nic.mac1609_4 	SentPackets 	1
scalar MyScenario.node[29].nic.mac1609_4 	SNIRLostPackets 	20
scalar MyScenario.node[29].nic.mac1609_4 	RXTXLostPackets 	7
scalar MyScenario.node[29].nic.mac1609_4 	TotalLostPackets 	27
scalar MyScenario.node[29].nic.mac1609_4 	DroppedPacketsInMac 	0
scalar MyScenario.node[29].nic.mac1609_4 	TooLittleTime 	0
scalar MyScenario.node[29].nic.mac1609_4 	TimesIntoBackoff 	1
scalar MyScenario.node[29].nic.mac1609_4 	SlotsBackoff 	2
scalar MyScenario.node[29].nic.mac1609_4 	NumInternalContention 	0
scalar MyScenario.node[29].nic.mac1609_4 	totalBusyTime 	0.001393036436
scalar MyScenario.node[29].veinsmobility 	startTime 	1
scalar MyScenario.node[29].veinsmobility 	totalTime 	52
scalar MyScenario.node[29].veinsmobility 	stopTime 	54
scalar MyScenario.node[29].veinsmobility 	minSpeed 	2.2305448672245
scalar MyScenario.node[29].veinsmobility 	maxSpeed 	13.883551772917
scalar MyScenario.node[29].veinsmobility 	totalDistance 	573.64046316486
scalar MyScenario.node[29].veinsmobility 	totalCO2Emission 	155.0005999947
scalar MyScenario.node[11].appl 	generatedWSMs 	0
scalar MyScenario.node[11].appl 	receivedWSMs 	0
scalar MyScenario.node[11].appl 	generatedBSMs 	0
scalar MyScenario.node[11].appl 	receivedBSMs 	0
scalar MyScenario.node[11].appl 	generatedWSAs 	0
scalar MyScenario.node[11].appl 	receivedWSAs 	0
scalar MyScenario.node[11].nic.phy80211p 	busyTime 	0
scalar MyScenario.node[11].nic.mac1609_4 	ReceivedUnicastPackets 	0
scalar MyScenario.node[11].nic.mac1609_4 	ReceivedBroadcasts 	0
scalar MyScenario.node[11].nic.mac1609_4 	SentPackets 	0
scalar MyScenario.node[11].nic.mac1609_4 	SNIRLostPackets 	0
scalar MyScenario.node[11].nic.mac1609_4 	RXTXLostPackets 	0
scalar MyScenario.node[11].nic.mac1609_4 	TotalLostPackets 	0
scalar MyScenario.node[11].nic.mac1609_4 	DroppedPacketsInMac 	0
scalar MyScenario.node[11].nic.mac1609_4 	TooLittleTime 	0
scalar MyScenario.node[11].nic.mac1609_4 	TimesIntoBackoff 	0
scalar MyScenario.node[11].nic.mac1609_4 	SlotsBackoff 	0
scalar MyScenario.node[11].nic.mac1609_4 	NumInternalContention 	0
scalar MyScenario.node[11].nic.mac1609_4 	totalBusyTime 	0
scalar MyScenario.node[11].veinsmobility 	startTime 	1
scalar MyScenario.node[11].veinsmobility 	totalTime 	53
scalar MyScenario.node[11].veinsmobility 	stopTime 	55
scalar MyScenario.node[11].veinsmobility 	minSpeed 	1.7378105406882
scalar MyScenario.node[11].veinsmobility 	maxSpeed 	13.728961436613
scalar MyScenario.node[11].veinsmobility 	totalDistance 	564.05204431777
scalar MyScenario.node[11].veinsmobility 	totalCO2Emission 	152.31881521491
scalar MyScenario.node[21].appl 	generatedWSMs 	1
scalar MyScenario.node[21].appl 	receivedWSMs 	2
scalar MyScenario.node[21].appl 	generatedBSMs 	0
scalar MyScenario.node[21].appl 	receivedBSMs 	0
scalar MyScenario.node[21].appl 	generatedWSAs 	0
scalar MyScenario.node[21].appl 	receivedWSAs 	0
scalar MyScenario.node[21].nic.phy80211p 	busyTime 	8.162962962963e-05
scalar MyScenario.node[21].nic.mac1609_4 	ReceivedUnicastPackets 	0
scalar MyScenario.node[21].nic.mac1609_4 	ReceivedBroadcasts 	2
scalar MyScenario.node[21].nic.mac1609_4 	SentPackets 	1
scalar MyScenario.node[21].nic.mac1609_4 	SNIRLostPackets 	17
scalar MyScenario.node[21].nic.mac1609_4 	RXTXLostPackets 	4
scalar MyScenario.node[21].nic.mac1609_4 	TotalLostPackets 	21
scalar MyScenario.node[21].nic.mac1609_4 	DroppedPacketsInMac 	0
scalar MyScenario.node[21].nic.mac1609_4 	TooLittleTime 	0
scalar MyScenario.node[21].nic.mac1609_4 	TimesIntoBackoff 	1
scalar MyScenario.node[21].nic.mac1609_4 	SlotsBackoff 	2
scalar MyScenario.node[21].nic.mac1609_4 	NumInternalContention 	0
scalar MyScenario.node[21].nic.mac1609_4 	totalBusyTime 	0.002321
scalar MyScenario.node[21].veinsmobility 	startTime 	1
scalar MyScenario.node[21].veinsmobility 	totalTime 	53
scalar MyScenario.node[21].veinsmobility 	stopTime 	55
scalar MyScenario.node[21].veinsmobility 	minSpeed 	4.7645744729565e-06
scalar MyScenario.node[21].veinsmobility 	maxSpeed 	13.885172614967
scalar MyScenario.node[21].veinsmobility 	totalDistance 	470.16987321956
scalar MyScenario.node[21].veinsmobility 	totalCO2Emission 	171.6729116404
scalar MyScenario.node[56].appl 	generatedWSMs 	1
scalar MyScenario.node[56].appl 	receivedWSMs 	1
scalar MyScenario.node[56].appl 	generatedBSMs 	0
scalar MyScenario.node[56].appl 	receivedBSMs 	0
scalar MyScenario.node[56].appl 	generatedWSAs 	0
scalar MyScenario.node[56].appl 	receivedWSAs 	0
scalar MyScenario.node[56].nic.phy80211p 	busyTime 	8.162962962963e-05
scalar MyScenario.node[56].nic.mac1609_4 	ReceivedUnicastPackets 	0
scalar MyScenario.node[56].nic.mac1609_4 	ReceivedBroadcasts 	1
scalar MyScenario.node[56].nic.mac1609_4 	SentPackets 	1
scalar MyScenario.node[56].nic.mac1609_4 	SNIRLostPackets 	18
scalar MyScenario.node[56].nic.mac1609_4 	RXTXLostPackets 	0
scalar MyScenario.node[56].nic.mac1609_4 	TotalLostPackets 	18
scalar MyScenario.node[56].nic.mac1609_4 	DroppedPacketsInMac 	0
scalar MyScenario.node[56].nic.mac1609_4 	TooLittleTime 	0
scalar MyScenario.node[56].nic.mac1609_4 	TimesIntoBackoff 	1
scalar MyScenario.node[56].nic.mac1609_4 	SlotsBackoff 	2
scalar MyScenario.node[56].nic.mac1609_4 	NumInternalContention 	0
scalar MyScenario.node[56].nic.mac1609_4 	totalBusyTime 	0.001161
scalar MyScenario.node[56].veinsmobility 	startTime 	1
scalar MyScenario.node[56].veinsmobility 	totalTime 	53
scalar MyScenario.node[56].veinsmobility 	stopTime 	55
scalar MyScenario.node[56].veinsmobility 	minSpeed 	1.2370523588661
scalar MyScenario.node[56].veinsmobility 	maxSpeed 	13.831750035123
scalar MyScenario.node[56].veinsmobility 	totalDistance 	563.30990894309
scalar MyScenario.node[56].veinsmobility 	totalCO2Emission 	182.46251976415
scalar MyScenario.node[86].appl 	generatedWSMs 	1
scalar MyScenario.node[86].appl 	receivedWSMs 	11
scalar MyScenario.node[86].appl 	generatedBSMs 	0
scalar MyScenario.node[86].appl 	receivedBSMs 	0
scalar MyScenario.node[86].appl 	generatedWSAs 	0
scalar MyScenario.node[86].appl 	receivedWSAs 	0
scalar MyScenario.node[86].nic.phy80211p 	busyTime 	9.28e-05
scalar MyScenario.node[86].nic.mac1609_4 	ReceivedUnicastPackets 	0
scalar MyScenario.node[86].nic.mac1609_4 	ReceivedBroadcasts 	11
scalar MyScenario.node[86].nic.mac1609_4 	SentPackets 	1
scalar MyScenario.node[86].nic.mac1609_4 	SNIRLostPackets 	11
scalar MyScenario.node[86].nic.mac1609_4 	RXTXLostPackets 	16
scalar MyScenario.node[86].nic.mac1609_4 	TotalLostPackets 	27
scalar MyScenario.node[86].nic.mac1609_4 	DroppedPacketsInMac 	0
scalar MyScenario.node[86].nic.mac1609_4 	TooLittleTime 	0
scalar MyScenario.node[86].nic.mac1609_4 	TimesIntoBackoff 	1
scalar MyScenario.node[86].nic.mac1609_4 	SlotsBackoff 	1
scalar MyScenario.node[86].nic.mac1609_4 	NumInternalContention 	0
scalar MyScenario.node[86].nic.mac1609_4 	totalBusyTime 	0.004177
scalar MyScenario.node[86].veinsmobility 	startTime 	1
scalar MyScenario.node[86].veinsmobility 	totalTime 	54
scalar MyScenario.node[86].veinsmobility 	stopTime 	56
scalar MyScenario.node[86].veinsmobility 	minSpeed 	1.706938752206
scalar MyScenario.node[86].veinsmobility 	maxSpeed 	13.871492082928
scalar MyScenario.node[86].veinsmobility 	totalDistance 	663.01657815945
scalar MyScenario.node[86].veinsmobility 	totalCO2Emission 	150.50760722821
scalar MyScenario.node[183].appl 	generatedWSMs 	0
scalar MyScenario.node[183].appl 	receivedWSMs 	0
scalar MyScenario.node[183].appl 	generatedBSMs 	0
scalar MyScenario.node[183].appl 	receivedBSMs 	0
scalar MyScenario.node[183].appl 	generatedWSAs 	0
scalar MyScenario.node[183].appl 	receivedWSAs 	0
scalar MyScenario.node[183].nic.phy80211p 	busyTime 	2.2307692307692e-05
scalar MyScenario.node[183].nic.mac1609_4 	ReceivedUnicastPackets 	0
scalar MyScenario.node[183].nic.mac1609_4 	ReceivedBroadcasts 	0
scalar MyScenario.node[183].nic.mac1609_4 	SentPackets 	0
scalar MyScenario.node[183].nic.mac1609_4 	SNIRLostPackets 	5
scalar MyScenario.node[183].nic.mac1609_4 	RXTXLostPackets 	0
scalar MyScenario.node[183].nic.mac1609_4 	TotalLostPackets 	5
scalar MyScenario.node[183].nic.mac1609_4 	DroppedPacketsInMac 	0
scalar MyScenario.node[183].nic.mac1609_4 	TooLittleTime 	0
scalar MyScenario.node[183].nic.mac1609_4 	TimesIntoBackoff 	0
scalar MyScenario.node[183].nic.mac1609_4 	SlotsBackoff 	0
scalar MyScenario.node[183].nic.mac1609_4 	NumInternalContention 	0
scalar MyScenario.node[183].nic.mac1609_4 	totalBusyTime 	0.000696
scalar MyScenario.node[183].veinsmobility 	startTime 	4
scalar MyScenario.node[183].veinsmobility 	totalTime 	51
scalar MyScenario.node[183].veinsmobility 	stopTime 	56
scalar MyScenario.node[183].veinsmobility 	minSpeed 	1.9153893503593
scalar MyScenario.node[183].veinsmobility 	maxSpeed 	13.895986160566
scalar MyScenario.node[183].veinsmobility 	totalDistance 	564.66902019685
scalar MyScenario.node[183].veinsmobility 	totalCO2Emission 	159.91760110865
scalar MyScenario.node[142].appl 	generatedWSMs 	1
scalar MyScenario.node[142].appl 	receivedWSMs 	2
scalar MyScenario.node[142].appl 	generatedBSMs 	0
scalar MyScenario.node[142].appl 	receivedBSMs 	0
scalar MyScenario.node[142].appl 	generatedWSAs 	0
scalar MyScenario.node[142].appl 	receivedWSAs 	0
scalar MyScenario.node[142].nic.phy80211p 	busyTime 	0.00011185714285714
scalar MyScenario.node[142].nic.mac1609_4 	ReceivedUnicastPackets 	0
scalar MyScenario.node[142].nic.mac1609_4 	ReceivedBroadcasts 	2
scalar MyScenario.node[142].nic.mac1609_4 	SentPackets 	1
scalar MyScenario.node[142].nic.mac1609_4 	SNIRLostPackets 	25
scalar MyScenario.node[142].nic.mac1609_4 	RXTXLostPackets 	1
scalar MyScenario.node[142].nic.mac1609_4 	TotalLostPackets 	26
scalar MyScenario.node[142].nic.mac1609_4 	DroppedPacketsInMac 	0
scalar MyScenario.node[142].nic.mac1609_4 	TooLittleTime 	0
scalar MyScenario.node[142].nic.mac1609_4 	TimesIntoBackoff 	1
scalar MyScenario.node[142].nic.mac1609_4 	SlotsBackoff 	3
scalar MyScenario.node[142].nic.mac1609_4 	NumInternalContention 	0
scalar MyScenario.node[142].nic.mac1609_4 	totalBusyTime 	0.001857
scalar MyScenario.node[142].veinsmobility 	startTime 	1
scalar MyScenario.node[142].veinsmobility 	totalTime 	55
scalar MyScenario.node[142].veinsmobility 	stopTime 	57
scalar MyScenario.node[142].veinsmobility 	minSpeed 	1.3725447254023
scalar MyScenario.node[142].veinsmobility 	maxSpeed 	13.856022640411
scalar MyScenario.node[142].veinsmobility 	totalDistance 	563.86234896993
scalar MyScenario.node[142].veinsmobility 	totalCO2Emission 	179.98765260102
scalar MyScenario.node[122].appl 	generatedWSMs 	1
scalar MyScenario.node[122].appl 	receivedWSMs 	1
scalar MyScenario.node[122].appl 	generatedBSMs 	0
scalar MyScenario.node[122].appl 	receivedBSMs 	0
scalar MyScenario.node[122].appl 	generatedWSAs 	0
scalar MyScenario.node[122].appl 	receivedWSAs 	0
scalar MyScenario.node[122].nic.phy80211p 	busyTime 	3.7285714285714e-05
scalar MyScenario.node[122].nic.mac1609_4 	ReceivedUnicastPackets 	0
scalar MyScenario.node[122].nic.mac1609_4 	ReceivedBroadcasts 	1
scalar MyScenario.node[122].nic.mac1609_4 	SentPackets 	1
scalar MyScenario.node[122].nic.mac1609_4 	SNIRLostPackets 	8
scalar MyScenario.node[122].nic.mac1609_4 	RXTXLostPackets 	11
scalar MyScenario.node[122].nic.mac1609_4 	TotalLostPackets 	19
scalar MyScenario.node[122].nic.mac1609_4 	DroppedPacketsInMac 	0
scalar MyScenario.node[122].nic.mac1609_4 	TooLittleTime 	0
scalar MyScenario.node[122].nic.mac1609_4 	TimesIntoBackoff 	1
scalar MyScenario.node[122].nic.mac1609_4 	SlotsBackoff 	0
scalar MyScenario.node[122].nic.mac1609_4 	NumInternalContention 	0
scalar MyScenario.node[122].nic.mac1609_4 	totalBusyTime 	0.001625
scalar MyScenario.node[122].veinsmobility 	startTime 	1
scalar MyScenario.node[122].veinsmobility 	totalTime 	55
scalar MyScenario.node[122].veinsmobility 	stopTime 	57
scalar MyScenario.node[122].veinsmobility 	minSpeed 	0.29874693141123
scalar MyScenario.node[122].veinsmobility 	maxSpeed 	13.897679226263
scalar MyScenario.node[122].veinsmobility 	totalDistance 	561.3048658526
scalar MyScenario.node[122].veinsmobility 	totalCO2Emission 	190.41699053335
scalar MyScenario.node[68].appl 	generatedWSMs 	1
scalar MyScenario.node[68].appl 	receivedWSMs 	3
scalar MyScenario.node[68].appl 	generatedBSMs 	0
scalar MyScenario.node[68].appl 	receivedBSMs 	0
scalar MyScenario.node[68].appl 	generatedWSAs 	0
scalar MyScenario.node[68].appl 	receivedWSAs 	0
scalar MyScenario.node[68].nic.phy80211p 	busyTime 	9.7684210526316e-05
scalar MyScenario.node[68].nic.mac1609_4 	ReceivedUnicastPackets 	0
scalar MyScenario.node[68].nic.mac1609_4 	ReceivedBroadcasts 	3
scalar MyScenario.node[68].nic.mac1609_4 	SentPackets 	1
scalar MyScenario.node[68].nic.mac1609_4 	SNIRLostPackets 	21
scalar MyScenario.node[68].nic.mac1609_4 	RXTXLostPackets 	7
scalar MyScenario.node[68].nic.mac1609_4 	TotalLostPackets 	28
scalar MyScenario.node[68].nic.mac1609_4 	DroppedPacketsInMac 	0
scalar MyScenario.node[68].nic.mac1609_4 	TooLittleTime 	0
scalar MyScenario.node[68].nic.mac1609_4 	TimesIntoBackoff 	1
scalar MyScenario.node[68].nic.mac1609_4 	SlotsBackoff 	3
scalar MyScenario.node[68].nic.mac1609_4 	NumInternalContention 	0
scalar MyScenario.node[68].nic.mac1609_4 	totalBusyTime 	0.002321049453
scalar MyScenario.node[68].veinsmobility 	startTime 	1
scalar MyScenario.node[68].veinsmobility 	totalTime 	56
scalar MyScenario.node[68].veinsmobility 	stopTime 	58
scalar MyScenario.node[68].veinsmobility 	minSpeed 	1.6874786040746
scalar MyScenario.node[68].veinsmobility 	maxSpeed 	13.823531432473
scalar MyScenario.node[68].veinsmobility 	totalDistance 	662.2163624449
scalar MyScenario.node[68].veinsmobility 	totalCO2Emission 	179.78845163753
scalar MyScenario.node[9].appl 	generatedWSMs 	0
scalar MyScenario.node[9].appl 	receivedWSMs 	0
scalar MyScenario.node[9].appl 	generatedBSMs 	0
scalar MyScenario.node[9].appl 	receivedBSMs 	0
scalar MyScenario.node[9].appl 	generatedWSAs 	0
scalar MyScenario.node[9].appl 	receivedWSAs 	0
scalar MyScenario.node[9].nic.phy80211p 	busyTime 	0
scalar MyScenario.node[9].nic.mac1609_4 	ReceivedUnicastPackets 	0
scalar MyScenario.node[9].nic.mac1609_4 	ReceivedBroadcasts 	0
scalar MyScenario.node[9].nic.mac1609_4 	SentPackets 	0
scalar MyScenario.node[9].nic.mac1609_4 	SNIRLostPackets 	0
scalar MyScenario.node[9].nic.mac1609_4 	RXTXLostPackets 	0
scalar MyScenario.node[9].nic.mac1609_4 	TotalLostPackets 	0
scalar MyScenario.node[9].nic.mac1609_4 	DroppedPacketsInMac 	0
scalar MyScenario.node[9].nic.mac1609_4 	TooLittleTime 	0
scalar MyScenario.node[9].nic.mac1609_4 	TimesIntoBackoff 	0
scalar MyScenario.node[9].nic.mac1609_4 	SlotsBackoff 	0
scalar MyScenario.node[9].nic.mac1609_4 	NumInternalContention 	0
scalar MyScenario.node[9].nic.mac1609_4 	totalBusyTime 	0
scalar MyScenario.node[9].veinsmobility 	startTime 	1
scalar MyScenario.node[9].veinsmobility 	totalTime 	56
scalar MyScenario.node[9].veinsmobility 	stopTime 	58
scalar MyScenario.node[9].veinsmobility 	minSpeed 	2.0441638188902
scalar MyScenario.node[9].veinsmobility 	maxSpeed 	13.880058583664
scalar MyScenario.node[9].veinsmobility 	totalDistance 	673.91155389211
scalar MyScenario.node[9].veinsmobility 	totalCO2Emission 	163.7534013424
scalar MyScenario.node[61].appl 	generatedWSMs 	1
scalar MyScenario.node[61].appl 	receivedWSMs 	21
scalar MyScenario.node[61].appl 	generatedBSMs 	0
scalar MyScenario.node[61].appl 	receivedBSMs 	0
scalar MyScenario.node[61].appl 	generatedWSAs 	0
scalar MyScenario.node[61].appl 	receivedWSAs 	0
scalar MyScenario.node[61].nic.phy80211p 	busyTime 	0.000144
scalar MyScenario.node[61].nic.mac1609_4 	ReceivedUnicastPackets 	0
scalar MyScenario.node[61].nic.mac1609_4 	ReceivedBroadcasts 	21
scalar MyScenario.node[61].nic.mac1609_4 	SentPackets 	1
scalar MyScenario.node[61].nic.mac1609_4 	SNIRLostPackets 	15
scalar MyScenario.node[61].nic.mac1609_4 	RXTXLostPackets 	12
scalar MyScenario.node[61].nic.mac1609_4 	TotalLostPackets 	27
scalar MyScenario.node[61].nic.mac1609_4 	DroppedPacketsInMac 	0
scalar MyScenario.node[61].nic.mac1609_4 	TooLittleTime 	0
scalar MyScenario.node[61].nic.mac1609_4 	TimesIntoBackoff 	1
scalar MyScenario.node[61].nic.mac1609_4 	SlotsBackoff 	0
scalar MyScenario.node[61].nic.mac1609_4 	NumInternalContention 	0
scalar MyScenario.node[61].nic.mac1609_4 	totalBusyTime 	0.006497
scalar MyScenario.node[61].veinsmobility 	startTime 	1
scalar MyScenario.node[61].veinsmobility 	totalTime 	57
scalar MyScenario.node[61].veinsmobility 	stopTime 	59
scalar MyScenario.node[61].veinsmobility 	minSpeed 	3.6874488205483e-08
scalar MyScenario.node[61].veinsmobility 	maxSpeed 	13.783981940802
scalar MyScenario.node[61].veinsmobility 	totalDistance 	466.11153922623
scalar MyScenario.node[61].veinsmobility 	totalCO2Emission 	163.85724075763
scalar MyScenario.node[104].appl 	generatedWSMs 	0
scalar MyScenario.node[104].appl 	receivedWSMs 	0
scalar MyScenario.node[104].appl 	generatedBSMs 	0
scalar MyScenario.node[104].appl 	receivedBSMs 	0
scalar MyScenario.node[104].appl 	generatedWSAs 	0
scalar MyScenario.node[104].appl 	receivedWSAs 	0
scalar MyScenario.node[104].nic.phy80211p 	busyTime 	3.5389830508475e-05
scalar MyScenario.node[104].nic.mac1609_4 	ReceivedUnicastPackets 	0
scalar MyScenario.node[104].nic.mac1609_4 	ReceivedBroadcasts 	0
scalar MyScenario.node[104].nic.mac1609_4 	SentPackets 	0
scalar MyScenario.node[104].nic.mac1609_4 	SNIRLostPackets 	9
scalar MyScenario.node[104].nic.mac1609_4 	RXTXLostPackets 	0
scalar MyScenario.node[104].nic.mac1609_4 	TotalLostPackets 	9
scalar MyScenario.node[104].nic.mac1609_4 	DroppedPacketsInMac 	0
scalar MyScenario.node[104].nic.mac1609_4 	TooLittleTime 	0
scalar MyScenario.node[104].nic.mac1609_4 	TimesIntoBackoff 	0
scalar MyScenario.node[104].nic.mac1609_4 	SlotsBackoff 	0
scalar MyScenario.node[104].nic.mac1609_4 	NumInternalContention 	0
scalar MyScenario.node[104].nic.mac1609_4 	totalBusyTime 	0.000232
scalar MyScenario.node[104].veinsmobility 	startTime 	1
scalar MyScenario.node[104].veinsmobility 	totalTime 	58
scalar MyScenario.node[104].veinsmobility 	stopTime 	60
scalar MyScenario.node[104].veinsmobility 	minSpeed 	2.9551165237517e-09
scalar MyScenario.node[104].veinsmobility 	maxSpeed 	13.869121979643
scalar MyScenario.node[104].veinsmobility 	totalDistance 	472.74420853709
scalar MyScenario.node[104].veinsmobility 	totalCO2Emission 	193.49447487388
scalar MyScenario.node[46].appl 	generatedWSMs 	0
scalar MyScenario.node[46].appl 	receivedWSMs 	0
scalar MyScenario.node[46].appl 	generatedBSMs 	0
scalar MyScenario.node[46].appl 	receivedBSMs 	0
scalar MyScenario.node[46].appl 	generatedWSAs 	0
scalar MyScenario.node[46].appl 	receivedWSAs 	0
scalar MyScenario.node[46].nic.phy80211p 	busyTime 	1.5728813559322e-05
scalar MyScenario.node[46].nic.mac1609_4 	ReceivedUnicastPackets 	0
scalar MyScenario.node[46].nic.mac1609_4 	ReceivedBroadcasts 	0
scalar MyScenario.node[46].nic.mac1609_4 	SentPackets 	0
scalar MyScenario.node[46].nic.mac1609_4 	SNIRLostPackets 	4
scalar MyScenario.node[46].nic.mac1609_4 	RXTXLostPackets 	0
scalar MyScenario.node[46].nic.mac1609_4 	TotalLostPackets 	4
scalar MyScenario.node[46].nic.mac1609_4 	DroppedPacketsInMac 	0
scalar MyScenario.node[46].nic.mac1609_4 	TooLittleTime 	0
scalar MyScenario.node[46].nic.mac1609_4 	TimesIntoBackoff 	0
scalar MyScenario.node[46].nic.mac1609_4 	SlotsBackoff 	0
scalar MyScenario.node[46].nic.mac1609_4 	NumInternalContention 	0
scalar MyScenario.node[46].nic.mac1609_4 	totalBusyTime 	0.000464
scalar MyScenario.node[46].veinsmobility 	startTime 	1
scalar MyScenario.node[46].veinsmobility 	totalTime 	58
scalar MyScenario.node[46].veinsmobility 	stopTime 	60
scalar MyScenario.node[46].veinsmobility 	minSpeed 	1.5897382106632
scalar MyScenario.node[46].veinsmobility 	maxSpeed 	13.898483998072
scalar MyScenario.node[46].veinsmobility 	totalDistance 	682.95561563545
scalar MyScenario.node[46].veinsmobility 	totalCO2Emission 	182.40901687596
scalar MyScenario.node[35].appl 	generatedWSMs 	1
scalar MyScenario.node[35].appl 	receivedWSMs 	3
scalar MyScenario.node[35].appl 	generatedBSMs 	0
scalar MyScenario.node[35].appl 	receivedBSMs 	0
scalar MyScenario.node[35].appl 	generatedWSAs 	0
scalar MyScenario.node[35].appl 	receivedWSAs 	0
scalar MyScenario.node[35].nic.phy80211p 	busyTime 	7.3466666666667e-05
scalar MyScenario.node[35].nic.mac1609_4 	ReceivedUnicastPackets 	0
scalar MyScenario.node[35].nic.mac1609_4 	ReceivedBroadcasts 	3
scalar MyScenario.node[35].nic.mac1609_4 	SentPackets 	1
scalar MyScenario.node[35].nic.mac1609_4 	SNIRLostPackets 	16
scalar MyScenario.node[35].nic.mac1609_4 	RXTXLostPackets 	13
scalar MyScenario.node[35].nic.mac1609_4 	TotalLostPackets 	29
scalar MyScenario.node[35].nic.mac1609_4 	DroppedPacketsInMac 	0
scalar MyScenario.node[35].nic.mac1609_4 	TooLittleTime 	0
scalar MyScenario.node[35].nic.mac1609_4 	TimesIntoBackoff 	1
scalar MyScenario.node[35].nic.mac1609_4 	SlotsBackoff 	2
scalar MyScenario.node[35].nic.mac1609_4 	NumInternalContention 	0
scalar MyScenario.node[35].nic.mac1609_4 	totalBusyTime 	0.002089
scalar MyScenario.node[35].veinsmobility 	startTime 	1
scalar MyScenario.node[35].veinsmobility 	totalTime 	59
scalar MyScenario.node[35].veinsmobility 	stopTime 	61
scalar MyScenario.node[35].veinsmobility 	minSpeed 	1.3378450270509
scalar MyScenario.node[35].veinsmobility 	maxSpeed 	13.86922170266
scalar MyScenario.node[35].veinsmobility 	totalDistance 	673.53564021247
scalar MyScenario.node[35].veinsmobility 	totalCO2Emission 	209.27249057755
scalar MyScenario.node[45].appl 	generatedWSMs 	1
scalar MyScenario.node[45].appl 	receivedWSMs 	15
scalar MyScenario.node[45].appl 	generatedBSMs 	0
scalar MyScenario.node[45].appl 	receivedBSMs 	0
scalar MyScenario.node[45].appl 	generatedWSAs 	0
scalar MyScenario.node[45].appl 	receivedWSAs 	0
scalar MyScenario.node[45].nic.phy80211p 	busyTime 	0.00025101639344262
scalar MyScenario.node[45].nic.mac1609_4 	ReceivedUnicastPackets 	0
scalar MyScenario.node[45].nic.mac1609_4 	ReceivedBroadcasts 	15
scalar MyScenario.node[45].nic.mac1609_4 	SentPackets 	1
scalar MyScenario.node[45].nic.mac1609_4 	SNIRLostPackets 	51
scalar MyScenario.node[45].nic.mac1609_4 	RXTXLostPackets 	13
scalar MyScenario.node[45].nic.mac1609_4 	TotalLostPackets 	64
scalar MyScenario.node[45].nic.mac1609_4 	DroppedPacketsInMac 	0
scalar MyScenario.node[45].nic.mac1609_4 	TooLittleTime 	0
scalar MyScenario.node[45].nic.mac1609_4 	TimesIntoBackoff 	1
scalar MyScenario.node[45].nic.mac1609_4 	SlotsBackoff 	2
scalar MyScenario.node[45].nic.mac1609_4 	NumInternalContention 	0
scalar MyScenario.node[45].nic.mac1609_4 	totalBusyTime 	0.004873024967
scalar MyScenario.node[45].veinsmobility 	startTime 	1
scalar MyScenario.node[45].veinsmobility 	totalTime 	60
scalar MyScenario.node[45].veinsmobility 	stopTime 	62
scalar MyScenario.node[45].veinsmobility 	minSpeed 	5.5795052972244e-08
scalar MyScenario.node[45].veinsmobility 	maxSpeed 	13.882396926451
scalar MyScenario.node[45].veinsmobility 	totalDistance 	480.80366385396
scalar MyScenario.node[45].veinsmobility 	totalCO2Emission 	187.4547518028
scalar MyScenario.node[22].appl 	generatedWSMs 	1
scalar MyScenario.node[22].appl 	receivedWSMs 	9
scalar MyScenario.node[22].appl 	generatedBSMs 	0
scalar MyScenario.node[22].appl 	receivedBSMs 	0
scalar MyScenario.node[22].appl 	generatedWSAs 	0
scalar MyScenario.node[22].appl 	receivedWSAs 	0
scalar MyScenario.node[22].nic.phy80211p 	busyTime 	6.0852459016393e-05
scalar MyScenario.node[22].nic.mac1609_4 	ReceivedUnicastPackets 	0
scalar MyScenario.node[22].nic.mac1609_4 	ReceivedBroadcasts 	9
scalar MyScenario.node[22].nic.mac1609_4 	SentPackets 	1
scalar MyScenario.node[22].nic.mac1609_4 	SNIRLostPackets 	7
scalar MyScenario.node[22].nic.mac1609_4 	RXTXLostPackets 	4
scalar MyScenario.node[22].nic.mac1609_4 	TotalLostPackets 	11
scalar MyScenario.node[22].nic.mac1609_4 	DroppedPacketsInMac 	0
scalar MyScenario.node[22].nic.mac1609_4 	TooLittleTime 	0
scalar MyScenario.node[22].nic.mac1609_4 	TimesIntoBackoff 	1
scalar MyScenario.node[22].nic.mac1609_4 	SlotsBackoff 	1
scalar MyScenario.node[22].nic.mac1609_4 	NumInternalContention 	0
scalar MyScenario.node[22].nic.mac1609_4 	totalBusyTime 	0.003017
scalar MyScenario.node[22].veinsmobility 	startTime 	1
scalar MyScenario.node[22].veinsmobility 	totalTime 	60
scalar MyScenario.node[22].veinsmobility 	stopTime 	62
scalar MyScenario.node[22].veinsmobility 	minSpeed 	0.088020549219901
scalar MyScenario.node[22].veinsmobility 	maxSpeed 	13.88086963275
scalar MyScenario.node[22].veinsmobility 	totalDistance 	572.09940538969
scalar MyScenario.node[22].veinsmobility 	totalCO2Emission 	206.72218111875
scalar MyScenario.node[189].appl 	generatedWSMs 	1
scalar MyScenario.node[189].appl 	receivedWSMs 	17
scalar MyScenario.node[189].appl 	generatedBSMs 	0
scalar MyScenario.node[189].appl 	receivedBSMs 	0
scalar MyScenario.node[189].appl 	generatedWSAs 	0
scalar MyScenario.node[189].appl 	receivedWSAs 	0
scalar MyScenario.node[189].nic.phy80211p 	busyTime 	0.0001
scalar MyScenario.node[189].nic.mac1609_4 	ReceivedUnicastPackets 	0
scalar MyScenario.node[189].nic.mac1609_4 	ReceivedBroadcasts 	17
scalar MyScenario.node[189].nic.mac1609_4 	SentPackets 	1
scalar MyScenario.node[189].nic.mac1609_4 	SNIRLostPackets 	8
scalar MyScenario.node[189].nic.mac1609_4 	RXTXLostPackets 	3
scalar MyScenario.node[189].nic.mac1609_4 	TotalLostPackets 	11
scalar MyScenario.node[189].nic.mac1609_4 	DroppedPacketsInMac 	0
scalar MyScenario.node[189].nic.mac1609_4 	TooLittleTime 	0
scalar MyScenario.node[189].nic.mac1609_4 	TimesIntoBackoff 	1
scalar MyScenario.node[189].nic.mac1609_4 	SlotsBackoff 	2
scalar MyScenario.node[189].nic.mac1609_4 	NumInternalContention 	0
scalar MyScenario.node[189].nic.mac1609_4 	totalBusyTime 	0.005337
scalar MyScenario.node[189].veinsmobility 	startTime 	4
scalar MyScenario.node[189].veinsmobility 	totalTime 	57
scalar MyScenario.node[189].veinsmobility 	stopTime 	62
scalar MyScenario.node[189].veinsmobility 	minSpeed 	0.044898418156148
scalar MyScenario.node[189].veinsmobility 	maxSpeed 	13.860871209088
scalar MyScenario.node[189].veinsmobility 	totalDistance 	579.3022775378
scalar MyScenario.node[189].veinsmobility 	totalCO2Emission 	174.30131898041
scalar MyScenario.node[54].appl 	generatedWSMs 	0
scalar MyScenario.node[54].appl 	receivedWSMs 	0
scalar MyScenario.node[54].appl 	generatedBSMs 	0
scalar MyScenario.node[54].appl 	receivedBSMs 	0
scalar MyScenario.node[54].appl 	generatedWSAs 	0
scalar MyScenario.node[54].appl 	receivedWSAs 	0
scalar MyScenario.node[54].nic.phy80211p 	busyTime 	0.00012722580645161
scalar MyScenario.node[54].nic.mac1609_4 	ReceivedUnicastPackets 	0
scalar MyScenario.node[54].nic.mac1609_4 	ReceivedBroadcasts 	0
scalar MyScenario.node[54].nic.mac1609_4 	SentPackets 	0
scalar MyScenario.node[54].nic.mac1609_4 	SNIRLostPackets 	34
scalar MyScenario.node[54].nic.mac1609_4 	RXTXLostPackets 	0
scalar MyScenario.node[54].nic.mac1609_4 	TotalLostPackets 	34
scalar MyScenario.node[54].nic.mac1609_4 	DroppedPacketsInMac 	0
scalar MyScenario.node[54].nic.mac1609_4 	TooLittleTime 	0
scalar MyScenario.node[54].nic.mac1609_4 	TimesIntoBackoff 	0
scalar MyScenario.node[54].nic.mac1609_4 	SlotsBackoff 	0
scalar MyScenario.node[54].nic.mac1609_4 	NumInternalContention 	0
scalar MyScenario.node[54].nic.mac1609_4 	totalBusyTime 	0.001856
scalar MyScenario.node[54].veinsmobility 	startTime 	1
scalar MyScenario.node[54].veinsmobility 	totalTime 	61
scalar MyScenario.node[54].veinsmobility 	stopTime 	63
scalar MyScenario.node[54].veinsmobility 	minSpeed 	1.6211458598962
scalar MyScenario.node[54].veinsmobility 	maxSpeed 	13.821745379292
scalar MyScenario.node[54].veinsmobility 	totalDistance 	682.75771874442
scalar MyScenario.node[54].veinsmobility 	totalCO2Emission 	173.14305106208
scalar MyScenario.node[176].appl 	generatedWSMs 	1
scalar MyScenario.node[176].appl 	receivedWSMs 	13
scalar MyScenario.node[176].appl 	generatedBSMs 	0
scalar MyScenario.node[176].appl 	receivedBSMs 	0
scalar MyScenario.node[176].appl 	generatedWSAs 	0
scalar MyScenario.node[176].appl 	receivedWSAs 	0
scalar MyScenario.node[176].nic.phy80211p 	busyTime 	0.00015853333333333
scalar MyScenario.node[176].nic.mac1609_4 	ReceivedUnicastPackets 	0
scalar MyScenario.node[176].nic.mac1609_4 	ReceivedBroadcasts 	13
scalar MyScenario.node[176].nic.mac1609_4 	SentPackets 	1
scalar MyScenario.node[176].nic.mac1609_4 	SNIRLostPackets 	28
scalar MyScenario.node[176].nic.mac1609_4 	RXTXLostPackets 	1
scalar MyScenario.node[176].nic.mac1609_4 	TotalLostPackets 	29
scalar MyScenario.node[176].nic.mac1609_4 	DroppedPacketsInMac 	0
scalar MyScenario.node[176].nic.mac1609_4 	TooLittleTime 	0
scalar MyScenario.node[176].nic.mac1609_4 	TimesIntoBackoff 	1
scalar MyScenario.node[176].nic.mac1609_4 	SlotsBackoff 	2
scalar MyScenario.node[176].nic.mac1609_4 	NumInternalContention 	0
scalar MyScenario.node[176].nic.mac1609_4 	totalBusyTime 	0.005105
scalar MyScenario.node[176].veinsmobility 	startTime 	4
scalar MyScenario.node[176].veinsmobility 	totalTime 	59
scalar MyScenario.node[176].veinsmobility 	stopTime 	64
scalar MyScenario.node[176].veinsmobility 	minSpeed 	2.1305897694081
scalar MyScenario.node[176].veinsmobility 	maxSpeed 	13.887560955016
scalar MyScenario.node[176].veinsmobility 	totalDistance 	666.80808739373
scalar MyScenario.node[176].veinsmobility 	totalCO2Emission 	182.32367658562
scalar MyScenario.node[110].appl 	generatedWSMs 	0
scalar MyScenario.node[110].appl 	receivedWSMs 	0
scalar MyScenario.node[110].appl 	generatedBSMs 	0
scalar MyScenario.node[110].appl 	receivedBSMs 	0
scalar MyScenario.node[110].appl 	generatedWSAs 	0
scalar MyScenario.node[110].appl 	receivedWSAs 	0
scalar MyScenario.node[110].nic.phy80211p 	busyTime 	9.2063492063492e-05
scalar MyScenario.node[110].nic.mac1609_4 	ReceivedUnicastPackets 	0
scalar MyScenario.node[110].nic.mac1609_4 	ReceivedBroadcasts 	0
scalar MyScenario.node[110].nic.mac1609_4 	SentPackets 	0
scalar MyScenario.node[110].nic.mac1609_4 	SNIRLostPackets 	25
scalar MyScenario.node[110].nic.mac1609_4 	RXTXLostPackets 	0
scalar MyScenario.node[110].nic.mac1609_4 	TotalLostPackets 	25
scalar MyScenario.node[110].nic.mac1609_4 	DroppedPacketsInMac 	0
scalar MyScenario.node[110].nic.mac1609_4 	TooLittleTime 	0
scalar MyScenario.node[110].nic.mac1609_4 	TimesIntoBackoff 	0
scalar MyScenario.node[110].nic.mac1609_4 	SlotsBackoff 	0
scalar MyScenario.node[110].nic.mac1609_4 	NumInternalContention 	0
scalar MyScenario.node[110].nic.mac1609_4 	totalBusyTime 	0.001624
scalar MyScenario.node[110].veinsmobility 	startTime 	1
scalar MyScenario.node[110].veinsmobility 	totalTime 	62
scalar MyScenario.node[110].veinsmobility 	stopTime 	64
scalar MyScenario.node[110].veinsmobility 	minSpeed 	0.74196870404421
scalar MyScenario.node[110].veinsmobility 	maxSpeed 	13.890145046287
scalar MyScenario.node[110].veinsmobility 	totalDistance 	663.05495542329
scalar MyScenario.node[110].veinsmobility 	totalCO2Emission 	192.88720380325
scalar MyScenario.node[135].appl 	generatedWSMs 	1
scalar MyScenario.node[135].appl 	receivedWSMs 	1
scalar MyScenario.node[135].appl 	generatedBSMs 	0
scalar MyScenario.node[135].appl 	receivedBSMs 	0
scalar MyScenario.node[135].appl 	generatedWSAs 	0
scalar MyScenario.node[135].appl 	receivedWSAs 	0
scalar MyScenario.node[135].nic.phy80211p 	busyTime 	7.3650793650794e-05
scalar MyScenario.node[135].nic.mac1609_4 	ReceivedUnicastPackets 	0
scalar MyScenario.node[135].nic.mac1609_4 	ReceivedBroadcasts 	1
[...]
scalar MyScenario.node[94].nic.mac1609_4 	TotalLostPackets 	8
scalar MyScenario.node[94].nic.mac1609_4 	DroppedPacketsInMac 	0
scalar MyScenario.node[94].nic.mac1609_4 	TooLittleTime 	0
scalar MyScenario.node[94].nic.mac1609_4 	TimesIntoBackoff 	0
scalar MyScenario.node[94].nic.mac1609_4 	SlotsBackoff 	0
scalar MyScenario.node[94].nic.mac1609_4 	NumInternalContention 	0
scalar MyScenario.node[94].nic.mac1609_4 	totalBusyTime 	0.000464081752
scalar MyScenario.node[94].veinsmobility 	startTime 	1
scalar MyScenario.node[94].veinsmobility 	totalTime 	127
scalar MyScenario.node[94].veinsmobility 	stopTime 	129
scalar MyScenario.node[94].veinsmobility 	minSpeed 	0.68047216504742
scalar MyScenario.node[94].veinsmobility 	maxSpeed 	13.878345684567
scalar MyScenario.node[94].veinsmobility 	totalDistance 	1271.8940250207
scalar MyScenario.node[94].veinsmobility 	totalCO2Emission 	446.08811827084
scalar MyScenario.node[36].appl 	generatedWSMs 	1
scalar MyScenario.node[36].appl 	receivedWSMs 	6
scalar MyScenario.node[36].appl 	generatedBSMs 	0
scalar MyScenario.node[36].appl 	receivedBSMs 	0
scalar MyScenario.node[36].appl 	generatedWSAs 	0
scalar MyScenario.node[36].appl 	receivedWSAs 	0
scalar MyScenario.node[36].nic.phy80211p 	busyTime 	5.3129770992366e-05
scalar MyScenario.node[36].nic.mac1609_4 	ReceivedUnicastPackets 	0
scalar MyScenario.node[36].nic.mac1609_4 	ReceivedBroadcasts 	6
scalar MyScenario.node[36].nic.mac1609_4 	SentPackets 	1
scalar MyScenario.node[36].nic.mac1609_4 	SNIRLostPackets 	24
scalar MyScenario.node[36].nic.mac1609_4 	RXTXLostPackets 	0
scalar MyScenario.node[36].nic.mac1609_4 	TotalLostPackets 	24
scalar MyScenario.node[36].nic.mac1609_4 	DroppedPacketsInMac 	0
scalar MyScenario.node[36].nic.mac1609_4 	TooLittleTime 	0
scalar MyScenario.node[36].nic.mac1609_4 	TimesIntoBackoff 	1
scalar MyScenario.node[36].nic.mac1609_4 	SlotsBackoff 	3
scalar MyScenario.node[36].nic.mac1609_4 	NumInternalContention 	0
scalar MyScenario.node[36].nic.mac1609_4 	totalBusyTime 	0.002553
scalar MyScenario.node[36].veinsmobility 	startTime 	1
scalar MyScenario.node[36].veinsmobility 	totalTime 	130
scalar MyScenario.node[36].veinsmobility 	stopTime 	132
scalar MyScenario.node[36].veinsmobility 	minSpeed 	7.2640855024925e-07
scalar MyScenario.node[36].veinsmobility 	maxSpeed 	13.850596520468
scalar MyScenario.node[36].veinsmobility 	totalDistance 	1275.9923264003
scalar MyScenario.node[36].veinsmobility 	totalCO2Emission 	431.87131441093
scalar MyScenario.node[197].appl 	generatedWSMs 	0
scalar MyScenario.node[197].appl 	receivedWSMs 	0
scalar MyScenario.node[197].appl 	generatedBSMs 	0
scalar MyScenario.node[197].appl 	receivedBSMs 	0
scalar MyScenario.node[197].appl 	generatedWSAs 	0
scalar MyScenario.node[197].appl 	receivedWSAs 	0
scalar MyScenario.node[197].nic.phy80211p 	busyTime 	9.28e-06
scalar MyScenario.node[197].nic.mac1609_4 	ReceivedUnicastPackets 	0
scalar MyScenario.node[197].nic.mac1609_4 	ReceivedBroadcasts 	0
scalar MyScenario.node[197].nic.mac1609_4 	SentPackets 	0
scalar MyScenario.node[197].nic.mac1609_4 	SNIRLostPackets 	5
scalar MyScenario.node[197].nic.mac1609_4 	RXTXLostPackets 	0
scalar MyScenario.node[197].nic.mac1609_4 	TotalLostPackets 	5
scalar MyScenario.node[197].nic.mac1609_4 	DroppedPacketsInMac 	0
scalar MyScenario.node[197].nic.mac1609_4 	TooLittleTime 	0
scalar MyScenario.node[197].nic.mac1609_4 	TimesIntoBackoff 	0
scalar MyScenario.node[197].nic.mac1609_4 	SlotsBackoff 	0
scalar MyScenario.node[197].nic.mac1609_4 	NumInternalContention 	0
scalar MyScenario.node[197].nic.mac1609_4 	totalBusyTime 	0.000232
scalar MyScenario.node[197].veinsmobility 	startTime 	7
scalar MyScenario.node[197].veinsmobility 	totalTime 	124
scalar MyScenario.node[197].veinsmobility 	stopTime 	132
scalar MyScenario.node[197].veinsmobility 	minSpeed 	2.3891103692818
scalar MyScenario.node[197].veinsmobility 	maxSpeed 	13.89620768195
scalar MyScenario.node[197].veinsmobility 	totalDistance 	1382.0059703931
scalar MyScenario.node[197].veinsmobility 	totalCO2Emission 	422.43067552924
scalar MyScenario.node[89].appl 	generatedWSMs 	0
scalar MyScenario.node[89].appl 	receivedWSMs 	0
scalar MyScenario.node[89].appl 	generatedBSMs 	0
scalar MyScenario.node[89].appl 	receivedBSMs 	0
scalar MyScenario.node[89].appl 	generatedWSAs 	0
scalar MyScenario.node[89].appl 	receivedWSAs 	0
scalar MyScenario.node[89].nic.phy80211p 	busyTime 	7.030303030303e-06
scalar MyScenario.node[89].nic.mac1609_4 	ReceivedUnicastPackets 	0
scalar MyScenario.node[89].nic.mac1609_4 	ReceivedBroadcasts 	0
scalar MyScenario.node[89].nic.mac1609_4 	SentPackets 	0
scalar MyScenario.node[89].nic.mac1609_4 	SNIRLostPackets 	4
scalar MyScenario.node[89].nic.mac1609_4 	RXTXLostPackets 	0
scalar MyScenario.node[89].nic.mac1609_4 	TotalLostPackets 	4
scalar MyScenario.node[89].nic.mac1609_4 	DroppedPacketsInMac 	0
scalar MyScenario.node[89].nic.mac1609_4 	TooLittleTime 	0
scalar MyScenario.node[89].nic.mac1609_4 	TimesIntoBackoff 	0
scalar MyScenario.node[89].nic.mac1609_4 	SlotsBackoff 	0
scalar MyScenario.node[89].nic.mac1609_4 	NumInternalContention 	0
scalar MyScenario.node[89].nic.mac1609_4 	totalBusyTime 	0.000232
scalar MyScenario.node[89].veinsmobility 	startTime 	1
scalar MyScenario.node[89].veinsmobility 	totalTime 	131
scalar MyScenario.node[89].veinsmobility 	stopTime 	133
scalar MyScenario.node[89].veinsmobility 	minSpeed 	2.2840894449269
scalar MyScenario.node[89].veinsmobility 	maxSpeed 	13.896341410745
scalar MyScenario.node[89].veinsmobility 	totalDistance 	1468.7485836844
scalar MyScenario.node[89].veinsmobility 	totalCO2Emission 	420.57113192405
scalar MyScenario.node[109].appl 	generatedWSMs 	1
scalar MyScenario.node[109].appl 	receivedWSMs 	1
scalar MyScenario.node[109].appl 	generatedBSMs 	0
scalar MyScenario.node[109].appl 	receivedBSMs 	0
scalar MyScenario.node[109].appl 	generatedWSAs 	0
scalar MyScenario.node[109].appl 	receivedWSAs 	0
scalar MyScenario.node[109].nic.phy80211p 	busyTime 	8.7218045112782e-06
scalar MyScenario.node[109].nic.mac1609_4 	ReceivedUnicastPackets 	0
scalar MyScenario.node[109].nic.mac1609_4 	ReceivedBroadcasts 	1
scalar MyScenario.node[109].nic.mac1609_4 	SentPackets 	1
scalar MyScenario.node[109].nic.mac1609_4 	SNIRLostPackets 	4
scalar MyScenario.node[109].nic.mac1609_4 	RXTXLostPackets 	6
scalar MyScenario.node[109].nic.mac1609_4 	TotalLostPackets 	10
scalar MyScenario.node[109].nic.mac1609_4 	DroppedPacketsInMac 	0
scalar MyScenario.node[109].nic.mac1609_4 	TooLittleTime 	0
scalar MyScenario.node[109].nic.mac1609_4 	TimesIntoBackoff 	1
scalar MyScenario.node[109].nic.mac1609_4 	SlotsBackoff 	1
scalar MyScenario.node[109].nic.mac1609_4 	NumInternalContention 	0
scalar MyScenario.node[109].nic.mac1609_4 	totalBusyTime 	0.000929081681
scalar MyScenario.node[109].veinsmobility 	startTime 	1
scalar MyScenario.node[109].veinsmobility 	totalTime 	132
scalar MyScenario.node[109].veinsmobility 	stopTime 	134
scalar MyScenario.node[109].veinsmobility 	minSpeed 	0.011536730706047
scalar MyScenario.node[109].veinsmobility 	maxSpeed 	13.86520075025
scalar MyScenario.node[109].veinsmobility 	totalDistance 	1158.9756367033
scalar MyScenario.node[109].veinsmobility 	totalCO2Emission 	439.52439095267
scalar MyScenario.node[51].appl 	generatedWSMs 	0
scalar MyScenario.node[51].appl 	receivedWSMs 	0
scalar MyScenario.node[51].appl 	generatedBSMs 	0
scalar MyScenario.node[51].appl 	receivedBSMs 	0
scalar MyScenario.node[51].appl 	generatedWSAs 	0
scalar MyScenario.node[51].appl 	receivedWSAs 	0
scalar MyScenario.node[51].nic.phy80211p 	busyTime 	1.3850746268657e-05
scalar MyScenario.node[51].nic.mac1609_4 	ReceivedUnicastPackets 	0
scalar MyScenario.node[51].nic.mac1609_4 	ReceivedBroadcasts 	0
scalar MyScenario.node[51].nic.mac1609_4 	SentPackets 	0
scalar MyScenario.node[51].nic.mac1609_4 	SNIRLostPackets 	8
scalar MyScenario.node[51].nic.mac1609_4 	RXTXLostPackets 	0
scalar MyScenario.node[51].nic.mac1609_4 	TotalLostPackets 	8
scalar MyScenario.node[51].nic.mac1609_4 	DroppedPacketsInMac 	0
scalar MyScenario.node[51].nic.mac1609_4 	TooLittleTime 	0
scalar MyScenario.node[51].nic.mac1609_4 	TimesIntoBackoff 	0
scalar MyScenario.node[51].nic.mac1609_4 	SlotsBackoff 	0
scalar MyScenario.node[51].nic.mac1609_4 	NumInternalContention 	0
scalar MyScenario.node[51].nic.mac1609_4 	totalBusyTime 	0.000232
scalar MyScenario.node[51].veinsmobility 	startTime 	1
scalar MyScenario.node[51].veinsmobility 	totalTime 	133
scalar MyScenario.node[51].veinsmobility 	stopTime 	135
scalar MyScenario.node[51].veinsmobility 	minSpeed 	0.12497927392201
scalar MyScenario.node[51].veinsmobility 	maxSpeed 	13.882969303709
scalar MyScenario.node[51].veinsmobility 	totalDistance 	1478.1388257047
scalar MyScenario.node[51].veinsmobility 	totalCO2Emission 	413.97148034075
scalar MyScenario.node[186].appl 	generatedWSMs 	1
scalar MyScenario.node[186].appl 	receivedWSMs 	11
scalar MyScenario.node[186].appl 	generatedBSMs 	0
scalar MyScenario.node[186].appl 	receivedBSMs 	0
scalar MyScenario.node[186].appl 	generatedWSAs 	0
scalar MyScenario.node[186].appl 	receivedWSAs 	0
scalar MyScenario.node[186].nic.phy80211p 	busyTime 	5.1358778625954e-05
scalar MyScenario.node[186].nic.mac1609_4 	ReceivedUnicastPackets 	0
scalar MyScenario.node[186].nic.mac1609_4 	ReceivedBroadcasts 	11
scalar MyScenario.node[186].nic.mac1609_4 	SentPackets 	1
scalar MyScenario.node[186].nic.mac1609_4 	SNIRLostPackets 	18
scalar MyScenario.node[186].nic.mac1609_4 	RXTXLostPackets 	1
scalar MyScenario.node[186].nic.mac1609_4 	TotalLostPackets 	19
scalar MyScenario.node[186].nic.mac1609_4 	DroppedPacketsInMac 	0
scalar MyScenario.node[186].nic.mac1609_4 	TooLittleTime 	0
scalar MyScenario.node[186].nic.mac1609_4 	TimesIntoBackoff 	1
scalar MyScenario.node[186].nic.mac1609_4 	SlotsBackoff 	1
scalar MyScenario.node[186].nic.mac1609_4 	NumInternalContention 	0
scalar MyScenario.node[186].nic.mac1609_4 	totalBusyTime 	0.003713
scalar MyScenario.node[186].veinsmobility 	startTime 	4
scalar MyScenario.node[186].veinsmobility 	totalTime 	130
scalar MyScenario.node[186].veinsmobility 	stopTime 	135
scalar MyScenario.node[186].veinsmobility 	minSpeed 	0.017016242586137
scalar MyScenario.node[186].veinsmobility 	maxSpeed 	13.837439597002
scalar MyScenario.node[186].veinsmobility 	totalDistance 	1477.4264307434
scalar MyScenario.node[186].veinsmobility 	totalCO2Emission 	403.67810349352
scalar MyScenario.node[0].appl 	generatedWSMs 	45
scalar MyScenario.node[0].appl 	receivedWSMs 	7
scalar MyScenario.node[0].appl 	generatedBSMs 	0
scalar MyScenario.node[0].appl 	receivedBSMs 	0
scalar MyScenario.node[0].appl 	generatedWSAs 	0
scalar MyScenario.node[0].appl 	receivedWSAs 	0
scalar MyScenario.node[0].nic.phy80211p 	busyTime 	7.9051851851852e-05
scalar MyScenario.node[0].nic.mac1609_4 	ReceivedUnicastPackets 	0
scalar MyScenario.node[0].nic.mac1609_4 	ReceivedBroadcasts 	7
scalar MyScenario.node[0].nic.mac1609_4 	SentPackets 	45
scalar MyScenario.node[0].nic.mac1609_4 	SNIRLostPackets 	39
scalar MyScenario.node[0].nic.mac1609_4 	RXTXLostPackets 	0
scalar MyScenario.node[0].nic.mac1609_4 	TotalLostPackets 	39
scalar MyScenario.node[0].nic.mac1609_4 	DroppedPacketsInMac 	0
scalar MyScenario.node[0].nic.mac1609_4 	TooLittleTime 	0
scalar MyScenario.node[0].nic.mac1609_4 	TimesIntoBackoff 	45
scalar MyScenario.node[0].nic.mac1609_4 	SlotsBackoff 	71
scalar MyScenario.node[0].nic.mac1609_4 	NumInternalContention 	0
scalar MyScenario.node[0].nic.mac1609_4 	totalBusyTime 	0.01326903903
scalar MyScenario.node[0].veinsmobility 	startTime 	1
scalar MyScenario.node[0].veinsmobility 	totalTime 	134
scalar MyScenario.node[0].veinsmobility 	stopTime 	136
scalar MyScenario.node[0].veinsmobility 	minSpeed 	3.250104352488e-06
scalar MyScenario.node[0].veinsmobility 	maxSpeed 	13.856860297476
scalar MyScenario.node[0].veinsmobility 	totalDistance 	1275.0904328233
scalar MyScenario.node[0].veinsmobility 	totalCO2Emission 	431.61960018597
scalar MyScenario.node[154].appl 	generatedWSMs 	1
scalar MyScenario.node[154].appl 	receivedWSMs 	10
scalar MyScenario.node[154].appl 	generatedBSMs 	0
scalar MyScenario.node[154].appl 	receivedBSMs 	0
scalar MyScenario.node[154].appl 	generatedWSAs 	0
scalar MyScenario.node[154].appl 	receivedWSAs 	0
scalar MyScenario.node[154].nic.phy80211p 	busyTime 	2.2176470588235e-05
scalar MyScenario.node[154].nic.mac1609_4 	ReceivedUnicastPackets 	0
scalar MyScenario.node[154].nic.mac1609_4 	ReceivedBroadcasts 	10
scalar MyScenario.node[154].nic.mac1609_4 	SentPackets 	1
scalar MyScenario.node[154].nic.mac1609_4 	SNIRLostPackets 	3
scalar MyScenario.node[154].nic.mac1609_4 	RXTXLostPackets 	8
scalar MyScenario.node[154].nic.mac1609_4 	TotalLostPackets 	11
scalar MyScenario.node[154].nic.mac1609_4 	DroppedPacketsInMac 	0
scalar MyScenario.node[154].nic.mac1609_4 	TooLittleTime 	0
scalar MyScenario.node[154].nic.mac1609_4 	TimesIntoBackoff 	1
scalar MyScenario.node[154].nic.mac1609_4 	SlotsBackoff 	3
scalar MyScenario.node[154].nic.mac1609_4 	NumInternalContention 	0
scalar MyScenario.node[154].nic.mac1609_4 	totalBusyTime 	0.003017
scalar MyScenario.node[154].veinsmobility 	startTime 	1
scalar MyScenario.node[154].veinsmobility 	totalTime 	135
scalar MyScenario.node[154].veinsmobility 	stopTime 	137
scalar MyScenario.node[154].veinsmobility 	minSpeed 	0.019991951035322
scalar MyScenario.node[154].veinsmobility 	maxSpeed 	13.897493032459
scalar MyScenario.node[154].veinsmobility 	totalDistance 	1554.7340091552
scalar MyScenario.node[154].veinsmobility 	totalCO2Emission 	403.4171994889
scalar MyScenario.node[71].appl 	generatedWSMs 	1
scalar MyScenario.node[71].appl 	receivedWSMs 	5
scalar MyScenario.node[71].appl 	generatedBSMs 	0
scalar MyScenario.node[71].appl 	receivedBSMs 	0
scalar MyScenario.node[71].appl 	generatedWSAs 	0
scalar MyScenario.node[71].appl 	receivedWSAs 	0
scalar MyScenario.node[71].nic.phy80211p 	busyTime 	1.5352941176471e-05
scalar MyScenario.node[71].nic.mac1609_4 	ReceivedUnicastPackets 	0
scalar MyScenario.node[71].nic.mac1609_4 	ReceivedBroadcasts 	5
scalar MyScenario.node[71].nic.mac1609_4 	SentPackets 	1
scalar MyScenario.node[71].nic.mac1609_4 	SNIRLostPackets 	4
scalar MyScenario.node[71].nic.mac1609_4 	RXTXLostPackets 	14
scalar MyScenario.node[71].nic.mac1609_4 	TotalLostPackets 	18
scalar MyScenario.node[71].nic.mac1609_4 	DroppedPacketsInMac 	0
scalar MyScenario.node[71].nic.mac1609_4 	TooLittleTime 	0
scalar MyScenario.node[71].nic.mac1609_4 	TimesIntoBackoff 	1
scalar MyScenario.node[71].nic.mac1609_4 	SlotsBackoff 	1
scalar MyScenario.node[71].nic.mac1609_4 	NumInternalContention 	0
scalar MyScenario.node[71].nic.mac1609_4 	totalBusyTime 	0.001857015777
scalar MyScenario.node[71].veinsmobility 	startTime 	1
scalar MyScenario.node[71].veinsmobility 	totalTime 	135
scalar MyScenario.node[71].veinsmobility 	stopTime 	137
scalar MyScenario.node[71].veinsmobility 	minSpeed 	0.0017794841073433
scalar MyScenario.node[71].veinsmobility 	maxSpeed 	13.898141633277
scalar MyScenario.node[71].veinsmobility 	totalDistance 	1464.0211751832
scalar MyScenario.node[71].veinsmobility 	totalCO2Emission 	437.46851882138
scalar MyScenario.node[27].appl 	generatedWSMs 	1
scalar MyScenario.node[27].appl 	receivedWSMs 	1
scalar MyScenario.node[27].appl 	generatedBSMs 	0
scalar MyScenario.node[27].appl 	receivedBSMs 	0
scalar MyScenario.node[27].appl 	generatedWSAs 	0
scalar MyScenario.node[27].appl 	receivedWSAs 	0
scalar MyScenario.node[27].nic.phy80211p 	busyTime 	1.0014388489209e-05
scalar MyScenario.node[27].nic.mac1609_4 	ReceivedUnicastPackets 	0
scalar MyScenario.node[27].nic.mac1609_4 	ReceivedBroadcasts 	1
scalar MyScenario.node[27].nic.mac1609_4 	SentPackets 	1
scalar MyScenario.node[27].nic.mac1609_4 	SNIRLostPackets 	5
scalar MyScenario.node[27].nic.mac1609_4 	RXTXLostPackets 	0
scalar MyScenario.node[27].nic.mac1609_4 	TotalLostPackets 	5
scalar MyScenario.node[27].nic.mac1609_4 	DroppedPacketsInMac 	0
scalar MyScenario.node[27].nic.mac1609_4 	TooLittleTime 	0
scalar MyScenario.node[27].nic.mac1609_4 	TimesIntoBackoff 	1
scalar MyScenario.node[27].nic.mac1609_4 	SlotsBackoff 	1
scalar MyScenario.node[27].nic.mac1609_4 	NumInternalContention 	0
scalar MyScenario.node[27].nic.mac1609_4 	totalBusyTime 	0.001161
scalar MyScenario.node[27].veinsmobility 	startTime 	1
scalar MyScenario.node[27].veinsmobility 	totalTime 	138
scalar MyScenario.node[27].veinsmobility 	stopTime 	140
scalar MyScenario.node[27].veinsmobility 	minSpeed 	0.034166103901621
scalar MyScenario.node[27].veinsmobility 	maxSpeed 	13.886580062588
scalar MyScenario.node[27].veinsmobility 	totalDistance 	1476.4430289212
scalar MyScenario.node[27].veinsmobility 	totalCO2Emission 	427.10730137938
scalar MyScenario.node[198].appl 	generatedWSMs 	1
scalar MyScenario.node[198].appl 	receivedWSMs 	9
scalar MyScenario.node[198].appl 	generatedBSMs 	0
scalar MyScenario.node[198].appl 	receivedBSMs 	0
scalar MyScenario.node[198].appl 	generatedWSAs 	0
scalar MyScenario.node[198].appl 	receivedWSAs 	0
scalar MyScenario.node[198].nic.phy80211p 	busyTime 	3.8961832061069e-05
scalar MyScenario.node[198].nic.mac1609_4 	ReceivedUnicastPackets 	0
scalar MyScenario.node[198].nic.mac1609_4 	ReceivedBroadcasts 	9
scalar MyScenario.node[198].nic.mac1609_4 	SentPackets 	1
scalar MyScenario.node[198].nic.mac1609_4 	SNIRLostPackets 	13
scalar MyScenario.node[198].nic.mac1609_4 	RXTXLostPackets 	5
scalar MyScenario.node[198].nic.mac1609_4 	TotalLostPackets 	18
scalar MyScenario.node[198].nic.mac1609_4 	DroppedPacketsInMac 	0
scalar MyScenario.node[198].nic.mac1609_4 	TooLittleTime 	0
scalar MyScenario.node[198].nic.mac1609_4 	TimesIntoBackoff 	1
scalar MyScenario.node[198].nic.mac1609_4 	SlotsBackoff 	0
scalar MyScenario.node[198].nic.mac1609_4 	NumInternalContention 	0
scalar MyScenario.node[198].nic.mac1609_4 	totalBusyTime 	0.003249017676
scalar MyScenario.node[198].veinsmobility 	startTime 	10
scalar MyScenario.node[198].veinsmobility 	totalTime 	130
scalar MyScenario.node[198].veinsmobility 	stopTime 	141
scalar MyScenario.node[198].veinsmobility 	minSpeed 	1.2298220193846e-10
scalar MyScenario.node[198].veinsmobility 	maxSpeed 	13.899114515889
scalar MyScenario.node[198].veinsmobility 	totalDistance 	1173.0049557427
scalar MyScenario.node[198].veinsmobility 	totalCO2Emission 	403.29549954061
scalar MyScenario.node[114].appl 	generatedWSMs 	1
scalar MyScenario.node[114].appl 	receivedWSMs 	15
scalar MyScenario.node[114].appl 	generatedBSMs 	0
scalar MyScenario.node[114].appl 	receivedBSMs 	0
scalar MyScenario.node[114].appl 	generatedWSAs 	0
scalar MyScenario.node[114].appl 	receivedWSAs 	0
scalar MyScenario.node[114].nic.phy80211p 	busyTime 	5.0039215686274e-05
scalar MyScenario.node[114].nic.mac1609_4 	ReceivedUnicastPackets 	0
scalar MyScenario.node[114].nic.mac1609_4 	ReceivedBroadcasts 	15
scalar MyScenario.node[114].nic.mac1609_4 	SentPackets 	1
scalar MyScenario.node[114].nic.mac1609_4 	SNIRLostPackets 	18
scalar MyScenario.node[114].nic.mac1609_4 	RXTXLostPackets 	8
scalar MyScenario.node[114].nic.mac1609_4 	TotalLostPackets 	26
scalar MyScenario.node[114].nic.mac1609_4 	DroppedPacketsInMac 	0
scalar MyScenario.node[114].nic.mac1609_4 	TooLittleTime 	0
scalar MyScenario.node[114].nic.mac1609_4 	TimesIntoBackoff 	1
scalar MyScenario.node[114].nic.mac1609_4 	SlotsBackoff 	3
scalar MyScenario.node[114].nic.mac1609_4 	NumInternalContention 	0
scalar MyScenario.node[114].nic.mac1609_4 	totalBusyTime 	0.004873
scalar MyScenario.node[114].veinsmobility 	startTime 	1
scalar MyScenario.node[114].veinsmobility 	totalTime 	152
scalar MyScenario.node[114].veinsmobility 	stopTime 	154
scalar MyScenario.node[114].veinsmobility 	minSpeed 	0.00062192297904772
scalar MyScenario.node[114].veinsmobility 	maxSpeed 	13.88805300619
scalar MyScenario.node[114].veinsmobility 	totalDistance 	1477.5981016773
scalar MyScenario.node[114].veinsmobility 	totalCO2Emission 	470.12517058967
