version 2
run General-23-20170829-17:41:45-8100
attr configname General
attr datetime 20170829-17:41:45
attr density 300
attr experiment General
attr inifile omnetpp.ini
attr iterationvars $density=300
attr iterationvars2 "$density=300, $repetition=3"
attr measurement $density=300
attr network com.liborio.pi.MyScenario
attr processid 8100
attr repetition 3
attr replication #3
attr resultdir results
attr runnumber 23
attr seedset 3
param **.coreDebug false
param **.debug false
param *.**.nic.mac1609_4.bitrate 6Mbps
param *.**.nic.mac1609_4.txPower 20mW
param *.**.nic.mac1609_4.useServiceChannel true
param *.**.nic.phy80211p.analogueModels "xmldoc(\"config.xml\")"
param *.**.nic.phy80211p.antenna "xmldoc(\"antenna.xml\", \"/root/Antenna[@id='monopole']\")"
param *.**.nic.phy80211p.decider "xmldoc(\"config.xml\")"
param *.**.nic.phy80211p.sensitivity -84.39dBm
param *.**.nic.phy80211p.thermalNoise -110dBm
param *.**.nic.phy80211p.usePropagationDelay true
param *.**.nic.phy80211p.useThermalNoise true
param *.annotations.draw true
param *.connectionManager.drawMaxIntfDist false
param *.connectionManager.maxInterfDist 2600m
param *.connectionManager.sendDirect true
param *.manager.autoShutdown true
param *.manager.host "\"localhost\""
param *.manager.launchConfig "xmldoc(string(${density = 100, 200, 300, 400})+\"_\"+ string(${repetition})+\".launchd.xml\")"
param *.manager.port 9999
param *.manager.updateInterval 1s
param *.node[*].appl.beaconInterval 1s
param *.node[*].appl.dataOnSch true
param *.node[*].appl.headerLength "80 bit"
param *.node[*].appl.isSource false
param *.node[*].appl.numMsgs 100
param *.node[*].appl.sendBeacons false
param *.node[*].appl.stopTrafficTime 130s
param *.node[*].appl.wsmInterval 3s
param *.node[*].applType "\"Flooding\""
param *.node[*].veinsmobility.x 0
param *.node[*].veinsmobility.y 0
param *.node[*].veinsmobility.z 1.895
param *.node[*].veinsmobilityType.debug true
param *.node[0].appl.isSource true
param *.playgroundSizeX 2500m
param *.playgroundSizeY 2500m
param *.playgroundSizeZ 50m

scalar . 	density 	300
scalar MyScenario.node[23].appl 	generatedWSMs 	0
scalar MyScenario.node[23].appl 	receivedWSMs 	0
scalar MyScenario.node[23].appl 	generatedBSMs 	0
scalar MyScenario.node[23].appl 	receivedBSMs 	0
scalar MyScenario.node[23].appl 	generatedWSAs 	0
scalar MyScenario.node[23].appl 	receivedWSAs 	0
scalar MyScenario.node[23].nic.phy80211p 	busyTime 	0.0001624
scalar MyScenario.node[23].nic.mac1609_4 	ReceivedUnicastPackets 	0
scalar MyScenario.node[23].nic.mac1609_4 	ReceivedBroadcasts 	0
scalar MyScenario.node[23].nic.mac1609_4 	SentPackets 	0
scalar MyScenario.node[23].nic.mac1609_4 	SNIRLostPackets 	7
scalar MyScenario.node[23].nic.mac1609_4 	RXTXLostPackets 	0
scalar MyScenario.node[23].nic.mac1609_4 	TotalLostPackets 	7
scalar MyScenario.node[23].nic.mac1609_4 	DroppedPacketsInMac 	0
scalar MyScenario.node[23].nic.mac1609_4 	TooLittleTime 	0
scalar MyScenario.node[23].nic.mac1609_4 	TimesIntoBackoff 	0
scalar MyScenario.node[23].nic.mac1609_4 	SlotsBackoff 	0
scalar MyScenario.node[23].nic.mac1609_4 	NumInternalContention 	0
scalar MyScenario.node[23].nic.mac1609_4 	totalBusyTime 	0.000696
scalar MyScenario.node[23].veinsmobility 	startTime 	1
scalar MyScenario.node[23].veinsmobility 	totalTime 	9
scalar MyScenario.node[23].veinsmobility 	stopTime 	11
scalar MyScenario.node[23].veinsmobility 	minSpeed 	2.2068437363254
scalar MyScenario.node[23].veinsmobility 	maxSpeed 	13.825710907392
scalar MyScenario.node[23].veinsmobility 	totalDistance 	82.699084181664
scalar MyScenario.node[23].veinsmobility 	totalCO2Emission 	38.958514784907
scalar MyScenario.node[193].appl 	generatedWSMs 	0
scalar MyScenario.node[193].appl 	receivedWSMs 	0
scalar MyScenario.node[193].appl 	generatedBSMs 	0
scalar MyScenario.node[193].appl 	receivedBSMs 	0
scalar MyScenario.node[193].appl 	generatedWSAs 	0
scalar MyScenario.node[193].appl 	receivedWSAs 	0
scalar MyScenario.node[193].nic.phy80211p 	busyTime 	0.000116
scalar MyScenario.node[193].nic.mac1609_4 	ReceivedUnicastPackets 	0
scalar MyScenario.node[193].nic.mac1609_4 	ReceivedBroadcasts 	0
scalar MyScenario.node[193].nic.mac1609_4 	SentPackets 	0
scalar MyScenario.node[193].nic.mac1609_4 	SNIRLostPackets 	5
scalar MyScenario.node[193].nic.mac1609_4 	RXTXLostPackets 	0
scalar MyScenario.node[193].nic.mac1609_4 	TotalLostPackets 	5
scalar MyScenario.node[193].nic.mac1609_4 	DroppedPacketsInMac 	0
scalar MyScenario.node[193].nic.mac1609_4 	TooLittleTime 	0
scalar MyScenario.node[193].nic.mac1609_4 	TimesIntoBackoff 	0
scalar MyScenario.node[193].nic.mac1609_4 	SlotsBackoff 	0
scalar MyScenario.node[193].nic.mac1609_4 	NumInternalContention 	0
scalar MyScenario.node[193].nic.mac1609_4 	totalBusyTime 	0.000232
scalar MyScenario.node[193].veinsmobility 	startTime 	1
scalar MyScenario.node[193].veinsmobility 	totalTime 	9
scalar MyScenario.node[193].veinsmobility 	stopTime 	11
scalar MyScenario.node[193].veinsmobility 	minSpeed 	1.5297377865529
scalar MyScenario.node[193].veinsmobility 	maxSpeed 	13.846676760889
scalar MyScenario.node[193].veinsmobility 	totalDistance 	78.519478596235
scalar MyScenario.node[193].veinsmobility 	totalCO2Emission 	38.457432488775
scalar MyScenario.node[11].appl 	generatedWSMs 	0
scalar MyScenario.node[11].appl 	receivedWSMs 	0
scalar MyScenario.node[11].appl 	generatedBSMs 	0
scalar MyScenario.node[11].appl 	receivedBSMs 	0
scalar MyScenario.node[11].appl 	generatedWSAs 	0
scalar MyScenario.node[11].appl 	receivedWSAs 	0
scalar MyScenario.node[11].nic.phy80211p 	busyTime 	0.0004176
scalar MyScenario.node[11].nic.mac1609_4 	ReceivedUnicastPackets 	0
scalar MyScenario.node[11].nic.mac1609_4 	ReceivedBroadcasts 	0
scalar MyScenario.node[11].nic.mac1609_4 	SentPackets 	0
scalar MyScenario.node[11].nic.mac1609_4 	SNIRLostPackets 	18
scalar MyScenario.node[11].nic.mac1609_4 	RXTXLostPackets 	0
scalar MyScenario.node[11].nic.mac1609_4 	TotalLostPackets 	18
scalar MyScenario.node[11].nic.mac1609_4 	DroppedPacketsInMac 	0
scalar MyScenario.node[11].nic.mac1609_4 	TooLittleTime 	0
scalar MyScenario.node[11].nic.mac1609_4 	TimesIntoBackoff 	0
scalar MyScenario.node[11].nic.mac1609_4 	SlotsBackoff 	0
scalar MyScenario.node[11].nic.mac1609_4 	NumInternalContention 	0
scalar MyScenario.node[11].nic.mac1609_4 	totalBusyTime 	0.000928
scalar MyScenario.node[11].veinsmobility 	startTime 	1
scalar MyScenario.node[11].veinsmobility 	totalTime 	9
scalar MyScenario.node[11].veinsmobility 	stopTime 	11
scalar MyScenario.node[11].veinsmobility 	minSpeed 	2.3682785478653
scalar MyScenario.node[11].veinsmobility 	maxSpeed 	13.841949707875
scalar MyScenario.node[11].veinsmobility 	totalDistance 	81.801939136884
scalar MyScenario.node[11].veinsmobility 	totalCO2Emission 	40.214200291756
scalar MyScenario.node[191].appl 	generatedWSMs 	0
scalar MyScenario.node[191].appl 	receivedWSMs 	0
scalar MyScenario.node[191].appl 	generatedBSMs 	0
scalar MyScenario.node[191].appl 	receivedBSMs 	0
scalar MyScenario.node[191].appl 	generatedWSAs 	0
scalar MyScenario.node[191].appl 	receivedWSAs 	0
scalar MyScenario.node[191].nic.phy80211p 	busyTime 	0
scalar MyScenario.node[191].nic.mac1609_4 	ReceivedUnicastPackets 	0
scalar MyScenario.node[191].nic.mac1609_4 	ReceivedBroadcasts 	0
scalar MyScenario.node[191].nic.mac1609_4 	SentPackets 	0
scalar MyScenario.node[191].nic.mac1609_4 	SNIRLostPackets 	0
scalar MyScenario.node[191].nic.mac1609_4 	RXTXLostPackets 	0
scalar MyScenario.node[191].nic.mac1609_4 	TotalLostPackets 	0
scalar MyScenario.node[191].nic.mac1609_4 	DroppedPacketsInMac 	0
scalar MyScenario.node[191].nic.mac1609_4 	TooLittleTime 	0
scalar MyScenario.node[191].nic.mac1609_4 	TimesIntoBackoff 	0
scalar MyScenario.node[191].nic.mac1609_4 	SlotsBackoff 	0
scalar MyScenario.node[191].nic.mac1609_4 	NumInternalContention 	0
scalar MyScenario.node[191].nic.mac1609_4 	totalBusyTime 	0
scalar MyScenario.node[191].veinsmobility 	startTime 	1
scalar MyScenario.node[191].veinsmobility 	totalTime 	10
scalar MyScenario.node[191].veinsmobility 	stopTime 	12
scalar MyScenario.node[191].veinsmobility 	minSpeed 	1.640589237446
scalar MyScenario.node[191].veinsmobility 	maxSpeed 	13.491562837316
scalar MyScenario.node[191].veinsmobility 	totalDistance 	92.023801493932
scalar MyScenario.node[191].veinsmobility 	totalCO2Emission 	38.794595022367
scalar MyScenario.node[216].appl 	generatedWSMs 	0
scalar MyScenario.node[216].appl 	receivedWSMs 	0
scalar MyScenario.node[216].appl 	generatedBSMs 	0
scalar MyScenario.node[216].appl 	receivedBSMs 	0
scalar MyScenario.node[216].appl 	generatedWSAs 	0
scalar MyScenario.node[216].appl 	receivedWSAs 	0
scalar MyScenario.node[216].nic.phy80211p 	busyTime 	0
scalar MyScenario.node[216].nic.mac1609_4 	ReceivedUnicastPackets 	0
scalar MyScenario.node[216].nic.mac1609_4 	ReceivedBroadcasts 	0
scalar MyScenario.node[216].nic.mac1609_4 	SentPackets 	0
scalar MyScenario.node[216].nic.mac1609_4 	SNIRLostPackets 	0
scalar MyScenario.node[216].nic.mac1609_4 	RXTXLostPackets 	0
scalar MyScenario.node[216].nic.mac1609_4 	TotalLostPackets 	0
scalar MyScenario.node[216].nic.mac1609_4 	DroppedPacketsInMac 	0
scalar MyScenario.node[216].nic.mac1609_4 	TooLittleTime 	0
scalar MyScenario.node[216].nic.mac1609_4 	TimesIntoBackoff 	0
scalar MyScenario.node[216].nic.mac1609_4 	SlotsBackoff 	0
scalar MyScenario.node[216].nic.mac1609_4 	NumInternalContention 	0
scalar MyScenario.node[216].nic.mac1609_4 	totalBusyTime 	0
scalar MyScenario.node[216].veinsmobility 	startTime 	4
scalar MyScenario.node[216].veinsmobility 	totalTime 	9
scalar MyScenario.node[216].veinsmobility 	stopTime 	14
scalar MyScenario.node[216].veinsmobility 	minSpeed 	1.6631560466252
scalar MyScenario.node[216].veinsmobility 	maxSpeed 	13.531592820515
scalar MyScenario.node[216].veinsmobility 	totalDistance 	82.881311637559
scalar MyScenario.node[216].veinsmobility 	totalCO2Emission 	37.76290382801
scalar MyScenario.node[234].appl 	generatedWSMs 	1
scalar MyScenario.node[234].appl 	receivedWSMs 	1
scalar MyScenario.node[234].appl 	generatedBSMs 	0
scalar MyScenario.node[234].appl 	receivedBSMs 	0
scalar MyScenario.node[234].appl 	generatedWSAs 	0
scalar MyScenario.node[234].appl 	receivedWSAs 	0
scalar MyScenario.node[234].nic.phy80211p 	busyTime 	0.0002088
scalar MyScenario.node[234].nic.mac1609_4 	ReceivedUnicastPackets 	0
scalar MyScenario.node[234].nic.mac1609_4 	ReceivedBroadcasts 	1
scalar MyScenario.node[234].nic.mac1609_4 	SentPackets 	1
scalar MyScenario.node[234].nic.mac1609_4 	SNIRLostPackets 	8
scalar MyScenario.node[234].nic.mac1609_4 	RXTXLostPackets 	9
scalar MyScenario.node[234].nic.mac1609_4 	TotalLostPackets 	17
scalar MyScenario.node[234].nic.mac1609_4 	DroppedPacketsInMac 	0
scalar MyScenario.node[234].nic.mac1609_4 	TooLittleTime 	0
scalar MyScenario.node[234].nic.mac1609_4 	TimesIntoBackoff 	1
scalar MyScenario.node[234].nic.mac1609_4 	SlotsBackoff 	2
scalar MyScenario.node[234].nic.mac1609_4 	NumInternalContention 	0
scalar MyScenario.node[234].nic.mac1609_4 	totalBusyTime 	0.000697091588
scalar MyScenario.node[234].veinsmobility 	startTime 	4
scalar MyScenario.node[234].veinsmobility 	totalTime 	9
scalar MyScenario.node[234].veinsmobility 	stopTime 	14
scalar MyScenario.node[234].veinsmobility 	minSpeed 	2.0469379268121
scalar MyScenario.node[234].veinsmobility 	maxSpeed 	13.836062322021
scalar MyScenario.node[234].veinsmobility 	totalDistance 	77.84102091887
scalar MyScenario.node[234].veinsmobility 	totalCO2Emission 	36.979261159331
scalar MyScenario.node[213].appl 	generatedWSMs 	0
scalar MyScenario.node[213].appl 	receivedWSMs 	0
scalar MyScenario.node[213].appl 	generatedBSMs 	0
scalar MyScenario.node[213].appl 	receivedBSMs 	0
scalar MyScenario.node[213].appl 	generatedWSAs 	0
scalar MyScenario.node[213].appl 	receivedWSAs 	0
scalar MyScenario.node[213].nic.phy80211p 	busyTime 	0.00012654545454545
scalar MyScenario.node[213].nic.mac1609_4 	ReceivedUnicastPackets 	0
scalar MyScenario.node[213].nic.mac1609_4 	ReceivedBroadcasts 	0
scalar MyScenario.node[213].nic.mac1609_4 	SentPackets 	0
scalar MyScenario.node[213].nic.mac1609_4 	SNIRLostPackets 	6
scalar MyScenario.node[213].nic.mac1609_4 	RXTXLostPackets 	0
scalar MyScenario.node[213].nic.mac1609_4 	TotalLostPackets 	6
scalar MyScenario.node[213].nic.mac1609_4 	DroppedPacketsInMac 	0
scalar MyScenario.node[213].nic.mac1609_4 	TooLittleTime 	0
scalar MyScenario.node[213].nic.mac1609_4 	TimesIntoBackoff 	0
scalar MyScenario.node[213].nic.mac1609_4 	SlotsBackoff 	0
scalar MyScenario.node[213].nic.mac1609_4 	NumInternalContention 	0
scalar MyScenario.node[213].nic.mac1609_4 	totalBusyTime 	0.000464
scalar MyScenario.node[213].veinsmobility 	startTime 	4
scalar MyScenario.node[213].veinsmobility 	totalTime 	10
scalar MyScenario.node[213].veinsmobility 	stopTime 	15
scalar MyScenario.node[213].veinsmobility 	minSpeed 	1.3721452933503
scalar MyScenario.node[213].veinsmobility 	maxSpeed 	13.798424752336
scalar MyScenario.node[213].veinsmobility 	totalDistance 	94.009898209372
scalar MyScenario.node[213].veinsmobility 	totalCO2Emission 	40.810797866736
scalar MyScenario.node[39].appl 	generatedWSMs 	1
scalar MyScenario.node[39].appl 	receivedWSMs 	3
scalar MyScenario.node[39].appl 	generatedBSMs 	0
scalar MyScenario.node[39].appl 	receivedBSMs 	0
scalar MyScenario.node[39].appl 	generatedWSAs 	0
scalar MyScenario.node[39].appl 	receivedWSAs 	0
scalar MyScenario.node[39].nic.phy80211p 	busyTime 	0.00015466666666667
scalar MyScenario.node[39].nic.mac1609_4 	ReceivedUnicastPackets 	0
scalar MyScenario.node[39].nic.mac1609_4 	ReceivedBroadcasts 	3
scalar MyScenario.node[39].nic.mac1609_4 	SentPackets 	1
scalar MyScenario.node[39].nic.mac1609_4 	SNIRLostPackets 	9
scalar MyScenario.node[39].nic.mac1609_4 	RXTXLostPackets 	7
scalar MyScenario.node[39].nic.mac1609_4 	TotalLostPackets 	16
scalar MyScenario.node[39].nic.mac1609_4 	DroppedPacketsInMac 	0
scalar MyScenario.node[39].nic.mac1609_4 	TooLittleTime 	0
scalar MyScenario.node[39].nic.mac1609_4 	TimesIntoBackoff 	1
scalar MyScenario.node[39].nic.mac1609_4 	SlotsBackoff 	2
scalar MyScenario.node[39].nic.mac1609_4 	NumInternalContention 	0
scalar MyScenario.node[39].nic.mac1609_4 	totalBusyTime 	0.000929
scalar MyScenario.node[39].veinsmobility 	startTime 	1
scalar MyScenario.node[39].veinsmobility 	totalTime 	17
scalar MyScenario.node[39].veinsmobility 	stopTime 	19
scalar MyScenario.node[39].veinsmobility 	minSpeed 	1.5166591727175
scalar MyScenario.node[39].veinsmobility 	maxSpeed 	13.889676507888
scalar MyScenario.node[39].veinsmobility 	totalDistance 	184.62959555527
scalar MyScenario.node[39].veinsmobility 	totalCO2Emission 	57.336090650943
scalar MyScenario.node[179].appl 	generatedWSMs 	1
scalar MyScenario.node[179].appl 	receivedWSMs 	9
scalar MyScenario.node[179].appl 	generatedBSMs 	0
scalar MyScenario.node[179].appl 	receivedBSMs 	0
scalar MyScenario.node[179].appl 	generatedWSAs 	0
scalar MyScenario.node[179].appl 	receivedWSAs 	0
scalar MyScenario.node[179].nic.phy80211p 	busyTime 	0.00029828571428571
scalar MyScenario.node[179].nic.mac1609_4 	ReceivedUnicastPackets 	0
scalar MyScenario.node[179].nic.mac1609_4 	ReceivedBroadcasts 	9
scalar MyScenario.node[179].nic.mac1609_4 	SentPackets 	1
scalar MyScenario.node[179].nic.mac1609_4 	SNIRLostPackets 	18
scalar MyScenario.node[179].nic.mac1609_4 	RXTXLostPackets 	14
scalar MyScenario.node[179].nic.mac1609_4 	TotalLostPackets 	32
scalar MyScenario.node[179].nic.mac1609_4 	DroppedPacketsInMac 	0
scalar MyScenario.node[179].nic.mac1609_4 	TooLittleTime 	0
scalar MyScenario.node[179].nic.mac1609_4 	TimesIntoBackoff 	1
scalar MyScenario.node[179].nic.mac1609_4 	SlotsBackoff 	3
scalar MyScenario.node[179].nic.mac1609_4 	NumInternalContention 	0
scalar MyScenario.node[179].nic.mac1609_4 	totalBusyTime 	0.003249083846
scalar MyScenario.node[179].veinsmobility 	startTime 	1
scalar MyScenario.node[179].veinsmobility 	totalTime 	20
scalar MyScenario.node[179].veinsmobility 	stopTime 	22
scalar MyScenario.node[179].veinsmobility 	minSpeed 	1.3934192936483
scalar MyScenario.node[179].veinsmobility 	maxSpeed 	13.628952761716
scalar MyScenario.node[179].veinsmobility 	totalDistance 	180.60508424262
scalar MyScenario.node[179].veinsmobility 	totalCO2Emission 	79.177112009068
scalar MyScenario.node[174].appl 	generatedWSMs 	1
scalar MyScenario.node[174].appl 	receivedWSMs 	4
scalar MyScenario.node[174].appl 	generatedBSMs 	0
scalar MyScenario.node[174].appl 	receivedBSMs 	0
scalar MyScenario.node[174].appl 	generatedWSAs 	0
scalar MyScenario.node[174].appl 	receivedWSAs 	0
scalar MyScenario.node[174].nic.phy80211p 	busyTime 	0.00032038095238095
scalar MyScenario.node[174].nic.mac1609_4 	ReceivedUnicastPackets 	0
scalar MyScenario.node[174].nic.mac1609_4 	ReceivedBroadcasts 	4
scalar MyScenario.node[174].nic.mac1609_4 	SentPackets 	1
scalar MyScenario.node[174].nic.mac1609_4 	SNIRLostPackets 	25
scalar MyScenario.node[174].nic.mac1609_4 	RXTXLostPackets 	9
scalar MyScenario.node[174].nic.mac1609_4 	TotalLostPackets 	34
scalar MyScenario.node[174].nic.mac1609_4 	DroppedPacketsInMac 	0
scalar MyScenario.node[174].nic.mac1609_4 	TooLittleTime 	0
scalar MyScenario.node[174].nic.mac1609_4 	TimesIntoBackoff 	1
scalar MyScenario.node[174].nic.mac1609_4 	SlotsBackoff 	3
scalar MyScenario.node[174].nic.mac1609_4 	NumInternalContention 	0
scalar MyScenario.node[174].nic.mac1609_4 	totalBusyTime 	0.002553063043
scalar MyScenario.node[174].veinsmobility 	startTime 	1
scalar MyScenario.node[174].veinsmobility 	totalTime 	20
scalar MyScenario.node[174].veinsmobility 	stopTime 	22
scalar MyScenario.node[174].veinsmobility 	minSpeed 	1.3397537706578
scalar MyScenario.node[174].veinsmobility 	maxSpeed 	13.852916946425
scalar MyScenario.node[174].veinsmobility 	totalDistance 	175.08190539564
scalar MyScenario.node[174].veinsmobility 	totalCO2Emission 	80.023124362397
scalar MyScenario.node[75].appl 	generatedWSMs 	1
scalar MyScenario.node[75].appl 	receivedWSMs 	1
scalar MyScenario.node[75].appl 	generatedBSMs 	0
scalar MyScenario.node[75].appl 	receivedBSMs 	0
scalar MyScenario.node[75].appl 	generatedWSAs 	0
scalar MyScenario.node[75].appl 	receivedWSAs 	0
scalar MyScenario.node[75].nic.phy80211p 	busyTime 	0.000116
scalar MyScenario.node[75].nic.mac1609_4 	ReceivedUnicastPackets 	0
scalar MyScenario.node[75].nic.mac1609_4 	ReceivedBroadcasts 	1
scalar MyScenario.node[75].nic.mac1609_4 	SentPackets 	1
scalar MyScenario.node[75].nic.mac1609_4 	SNIRLostPackets 	12
scalar MyScenario.node[75].nic.mac1609_4 	RXTXLostPackets 	2
scalar MyScenario.node[75].nic.mac1609_4 	TotalLostPackets 	14
scalar MyScenario.node[75].nic.mac1609_4 	DroppedPacketsInMac 	0
scalar MyScenario.node[75].nic.mac1609_4 	TooLittleTime 	0
scalar MyScenario.node[75].nic.mac1609_4 	TimesIntoBackoff 	1
scalar MyScenario.node[75].nic.mac1609_4 	SlotsBackoff 	2
scalar MyScenario.node[75].nic.mac1609_4 	NumInternalContention 	0
scalar MyScenario.node[75].nic.mac1609_4 	totalBusyTime 	0.00069700102
scalar MyScenario.node[75].veinsmobility 	startTime 	1
scalar MyScenario.node[75].veinsmobility 	totalTime 	25
scalar MyScenario.node[75].veinsmobility 	stopTime 	27
scalar MyScenario.node[75].veinsmobility 	minSpeed 	2.2986166484421
scalar MyScenario.node[75].veinsmobility 	maxSpeed 	13.860571197374
scalar MyScenario.node[75].veinsmobility 	totalDistance 	273.48691680682
scalar MyScenario.node[75].veinsmobility 	totalCO2Emission 	90.183342770032
scalar MyScenario.node[306].appl 	generatedWSMs 	1
scalar MyScenario.node[306].appl 	receivedWSMs 	3
scalar MyScenario.node[306].appl 	generatedBSMs 	0
scalar MyScenario.node[306].appl 	receivedBSMs 	0
scalar MyScenario.node[306].appl 	generatedWSAs 	0
scalar MyScenario.node[306].appl 	receivedWSAs 	0
scalar MyScenario.node[306].nic.phy80211p 	busyTime 	0.00029828571428571
scalar MyScenario.node[306].nic.mac1609_4 	ReceivedUnicastPackets 	0
scalar MyScenario.node[306].nic.mac1609_4 	ReceivedBroadcasts 	3
scalar MyScenario.node[306].nic.mac1609_4 	SentPackets 	1
scalar MyScenario.node[306].nic.mac1609_4 	SNIRLostPackets 	6
scalar MyScenario.node[306].nic.mac1609_4 	RXTXLostPackets 	0
scalar MyScenario.node[306].nic.mac1609_4 	TotalLostPackets 	6
scalar MyScenario.node[306].nic.mac1609_4 	DroppedPacketsInMac 	0
scalar MyScenario.node[306].nic.mac1609_4 	TooLittleTime 	0
scalar MyScenario.node[306].nic.mac1609_4 	TimesIntoBackoff 	1
scalar MyScenario.node[306].nic.mac1609_4 	SlotsBackoff 	0
scalar MyScenario.node[306].nic.mac1609_4 	NumInternalContention 	0
scalar MyScenario.node[306].nic.mac1609_4 	totalBusyTime 	0.001161
scalar MyScenario.node[306].veinsmobility 	startTime 	22
scalar MyScenario.node[306].veinsmobility 	totalTime 	6
scalar MyScenario.node[306].veinsmobility 	stopTime 	29
scalar MyScenario.node[306].veinsmobility 	minSpeed 	12.893945437996
scalar MyScenario.node[306].veinsmobility 	maxSpeed 	13.707427641936
scalar MyScenario.node[306].veinsmobility 	totalDistance 	79.764166593412
scalar MyScenario.node[306].veinsmobility 	totalCO2Emission 	8.0786240825212
scalar MyScenario.node[243].appl 	generatedWSMs 	1
scalar MyScenario.node[243].appl 	receivedWSMs 	2
scalar MyScenario.node[243].appl 	generatedBSMs 	0
scalar MyScenario.node[243].appl 	receivedBSMs 	0
scalar MyScenario.node[243].appl 	generatedWSAs 	0
scalar MyScenario.node[243].appl 	receivedWSAs 	0
scalar MyScenario.node[243].nic.phy80211p 	busyTime 	0.00012428571428571
scalar MyScenario.node[243].nic.mac1609_4 	ReceivedUnicastPackets 	0
scalar MyScenario.node[243].nic.mac1609_4 	ReceivedBroadcasts 	2
scalar MyScenario.node[243].nic.mac1609_4 	SentPackets 	1
scalar MyScenario.node[243].nic.mac1609_4 	SNIRLostPackets 	13
scalar MyScenario.node[243].nic.mac1609_4 	RXTXLostPackets 	2
scalar MyScenario.node[243].nic.mac1609_4 	TotalLostPackets 	15
scalar MyScenario.node[243].nic.mac1609_4 	DroppedPacketsInMac 	0
scalar MyScenario.node[243].nic.mac1609_4 	TooLittleTime 	0
scalar MyScenario.node[243].nic.mac1609_4 	TimesIntoBackoff 	1
scalar MyScenario.node[243].nic.mac1609_4 	SlotsBackoff 	2
scalar MyScenario.node[243].nic.mac1609_4 	NumInternalContention 	0
scalar MyScenario.node[243].nic.mac1609_4 	totalBusyTime 	0.001161
scalar MyScenario.node[243].veinsmobility 	startTime 	4
scalar MyScenario.node[243].veinsmobility 	totalTime 	27
scalar MyScenario.node[243].veinsmobility 	stopTime 	32
scalar MyScenario.node[243].veinsmobility 	minSpeed 	1.4885470697656
scalar MyScenario.node[243].veinsmobility 	maxSpeed 	13.861617782526
scalar MyScenario.node[243].veinsmobility 	totalDistance 	272.62964587643
scalar MyScenario.node[243].veinsmobility 	totalCO2Emission 	90.352790941356
scalar MyScenario.node[122].appl 	generatedWSMs 	1
scalar MyScenario.node[122].appl 	receivedWSMs 	6
scalar MyScenario.node[122].appl 	generatedBSMs 	0
scalar MyScenario.node[122].appl 	receivedBSMs 	0
scalar MyScenario.node[122].appl 	generatedWSAs 	0
scalar MyScenario.node[122].appl 	receivedWSAs 	0
scalar MyScenario.node[122].nic.phy80211p 	busyTime 	0.00016376470588235
scalar MyScenario.node[122].nic.mac1609_4 	ReceivedUnicastPackets 	0
scalar MyScenario.node[122].nic.mac1609_4 	ReceivedBroadcasts 	6
scalar MyScenario.node[122].nic.mac1609_4 	SentPackets 	1
scalar MyScenario.node[122].nic.mac1609_4 	SNIRLostPackets 	18
scalar MyScenario.node[122].nic.mac1609_4 	RXTXLostPackets 	7
scalar MyScenario.node[122].nic.mac1609_4 	TotalLostPackets 	25
scalar MyScenario.node[122].nic.mac1609_4 	DroppedPacketsInMac 	0
scalar MyScenario.node[122].nic.mac1609_4 	TooLittleTime 	0
scalar MyScenario.node[122].nic.mac1609_4 	TimesIntoBackoff 	1
scalar MyScenario.node[122].nic.mac1609_4 	SlotsBackoff 	3
scalar MyScenario.node[122].nic.mac1609_4 	NumInternalContention 	0
scalar MyScenario.node[122].nic.mac1609_4 	totalBusyTime 	0.002553
scalar MyScenario.node[122].veinsmobility 	startTime 	1
scalar MyScenario.node[122].veinsmobility 	totalTime 	33
scalar MyScenario.node[122].veinsmobility 	stopTime 	35
scalar MyScenario.node[122].veinsmobility 	minSpeed 	1.6190552841639
scalar MyScenario.node[122].veinsmobility 	maxSpeed 	13.871078205481
scalar MyScenario.node[122].veinsmobility 	totalDistance 	375.48746986417
scalar MyScenario.node[122].veinsmobility 	totalCO2Emission 	103.62611691005
scalar MyScenario.node[101].appl 	generatedWSMs 	1
scalar MyScenario.node[101].appl 	receivedWSMs 	9
scalar MyScenario.node[101].appl 	generatedBSMs 	0
scalar MyScenario.node[101].appl 	receivedBSMs 	0
scalar MyScenario.node[101].appl 	generatedWSAs 	0
scalar MyScenario.node[101].appl 	receivedWSAs 	0
scalar MyScenario.node[101].nic.phy80211p 	busyTime 	0.0001856
scalar MyScenario.node[101].nic.mac1609_4 	ReceivedUnicastPackets 	0
scalar MyScenario.node[101].nic.mac1609_4 	ReceivedBroadcasts 	9
scalar MyScenario.node[101].nic.mac1609_4 	SentPackets 	1
scalar MyScenario.node[101].nic.mac1609_4 	SNIRLostPackets 	19
scalar MyScenario.node[101].nic.mac1609_4 	RXTXLostPackets 	7
scalar MyScenario.node[101].nic.mac1609_4 	TotalLostPackets 	26
scalar MyScenario.node[101].nic.mac1609_4 	DroppedPacketsInMac 	0
scalar MyScenario.node[101].nic.mac1609_4 	TooLittleTime 	0
scalar MyScenario.node[101].nic.mac1609_4 	TimesIntoBackoff 	1
scalar MyScenario.node[101].nic.mac1609_4 	SlotsBackoff 	1
scalar MyScenario.node[101].nic.mac1609_4 	NumInternalContention 	0
scalar MyScenario.node[101].nic.mac1609_4 	totalBusyTime 	0.003481024926
scalar MyScenario.node[101].veinsmobility 	startTime 	1
scalar MyScenario.node[101].veinsmobility 	totalTime 	34
scalar MyScenario.node[101].veinsmobility 	stopTime 	36
scalar MyScenario.node[101].veinsmobility 	minSpeed 	2.0452050217893
scalar MyScenario.node[101].veinsmobility 	maxSpeed 	13.853492746083
scalar MyScenario.node[101].veinsmobility 	totalDistance 	368.18327892042
scalar MyScenario.node[101].veinsmobility 	totalCO2Emission 	120.67496471822
scalar MyScenario.node[90].appl 	generatedWSMs 	0
scalar MyScenario.node[90].appl 	receivedWSMs 	0
scalar MyScenario.node[90].appl 	generatedBSMs 	0
scalar MyScenario.node[90].appl 	receivedBSMs 	0
scalar MyScenario.node[90].appl 	generatedWSAs 	0
scalar MyScenario.node[90].appl 	receivedWSAs 	0
scalar MyScenario.node[90].nic.phy80211p 	busyTime 	1.3257142857143e-05
scalar MyScenario.node[90].nic.mac1609_4 	ReceivedUnicastPackets 	0
scalar MyScenario.node[90].nic.mac1609_4 	ReceivedBroadcasts 	0
scalar MyScenario.node[90].nic.mac1609_4 	SentPackets 	0
scalar MyScenario.node[90].nic.mac1609_4 	SNIRLostPackets 	2
scalar MyScenario.node[90].nic.mac1609_4 	RXTXLostPackets 	0
scalar MyScenario.node[90].nic.mac1609_4 	TotalLostPackets 	2
scalar MyScenario.node[90].nic.mac1609_4 	DroppedPacketsInMac 	0
scalar MyScenario.node[90].nic.mac1609_4 	TooLittleTime 	0
scalar MyScenario.node[90].nic.mac1609_4 	TimesIntoBackoff 	0
scalar MyScenario.node[90].nic.mac1609_4 	SlotsBackoff 	0
scalar MyScenario.node[90].nic.mac1609_4 	NumInternalContention 	0
scalar MyScenario.node[90].nic.mac1609_4 	totalBusyTime 	0.000232
scalar MyScenario.node[90].veinsmobility 	startTime 	1
scalar MyScenario.node[90].veinsmobility 	totalTime 	34
scalar MyScenario.node[90].veinsmobility 	stopTime 	36
scalar MyScenario.node[90].veinsmobility 	minSpeed 	1.4086699561914
scalar MyScenario.node[90].veinsmobility 	maxSpeed 	13.886829599412
scalar MyScenario.node[90].veinsmobility 	totalDistance 	367.12722910686
scalar MyScenario.node[90].veinsmobility 	totalCO2Emission 	119.93307656344
scalar MyScenario.node[220].appl 	generatedWSMs 	1
scalar MyScenario.node[220].appl 	receivedWSMs 	10
scalar MyScenario.node[220].appl 	generatedBSMs 	0
scalar MyScenario.node[220].appl 	receivedBSMs 	0
scalar MyScenario.node[220].appl 	generatedWSAs 	0
scalar MyScenario.node[220].appl 	receivedWSAs 	0
scalar MyScenario.node[220].nic.phy80211p 	busyTime 	0.00023882352941176
scalar MyScenario.node[220].nic.mac1609_4 	ReceivedUnicastPackets 	0
scalar MyScenario.node[220].nic.mac1609_4 	ReceivedBroadcasts 	10
scalar MyScenario.node[220].nic.mac1609_4 	SentPackets 	1
scalar MyScenario.node[220].nic.mac1609_4 	SNIRLostPackets 	25
scalar MyScenario.node[220].nic.mac1609_4 	RXTXLostPackets 	6
scalar MyScenario.node[220].nic.mac1609_4 	TotalLostPackets 	31
scalar MyScenario.node[220].nic.mac1609_4 	DroppedPacketsInMac 	0
scalar MyScenario.node[220].nic.mac1609_4 	TooLittleTime 	0
scalar MyScenario.node[220].nic.mac1609_4 	TimesIntoBackoff 	1
scalar MyScenario.node[220].nic.mac1609_4 	SlotsBackoff 	3
scalar MyScenario.node[220].nic.mac1609_4 	NumInternalContention 	0
scalar MyScenario.node[220].nic.mac1609_4 	totalBusyTime 	0.004409
scalar MyScenario.node[220].veinsmobility 	startTime 	4
scalar MyScenario.node[220].veinsmobility 	totalTime 	33
scalar MyScenario.node[220].veinsmobility 	stopTime 	38
scalar MyScenario.node[220].veinsmobility 	minSpeed 	1.3190197834745
scalar MyScenario.node[220].veinsmobility 	maxSpeed 	13.898355027707
scalar MyScenario.node[220].veinsmobility 	totalDistance 	372.2857719678
scalar MyScenario.node[220].veinsmobility 	totalCO2Emission 	105.70023029085
scalar MyScenario.node[225].appl 	generatedWSMs 	0
scalar MyScenario.node[225].appl 	receivedWSMs 	0
scalar MyScenario.node[225].appl 	generatedBSMs 	0
scalar MyScenario.node[225].appl 	receivedBSMs 	0
scalar MyScenario.node[225].appl 	generatedWSAs 	0
scalar MyScenario.node[225].appl 	receivedWSAs 	0
scalar MyScenario.node[225].nic.phy80211p 	busyTime 	0.00011268571428571
scalar MyScenario.node[225].nic.mac1609_4 	ReceivedUnicastPackets 	0
scalar MyScenario.node[225].nic.mac1609_4 	ReceivedBroadcasts 	0
scalar MyScenario.node[225].nic.mac1609_4 	SentPackets 	0
scalar MyScenario.node[225].nic.mac1609_4 	SNIRLostPackets 	17
scalar MyScenario.node[225].nic.mac1609_4 	RXTXLostPackets 	0
scalar MyScenario.node[225].nic.mac1609_4 	TotalLostPackets 	17
scalar MyScenario.node[225].nic.mac1609_4 	DroppedPacketsInMac 	0
scalar MyScenario.node[225].nic.mac1609_4 	TooLittleTime 	0
scalar MyScenario.node[225].nic.mac1609_4 	TimesIntoBackoff 	0
scalar MyScenario.node[225].nic.mac1609_4 	SlotsBackoff 	0
scalar MyScenario.node[225].nic.mac1609_4 	NumInternalContention 	0
scalar MyScenario.node[225].nic.mac1609_4 	totalBusyTime 	0.00116
scalar MyScenario.node[225].veinsmobility 	startTime 	4
scalar MyScenario.node[225].veinsmobility 	totalTime 	34
scalar MyScenario.node[225].veinsmobility 	stopTime 	39
scalar MyScenario.node[225].veinsmobility 	minSpeed 	1.8109140378889
scalar MyScenario.node[225].veinsmobility 	maxSpeed 	13.877516435343
scalar MyScenario.node[225].veinsmobility 	totalDistance 	379.84393295233
scalar MyScenario.node[225].veinsmobility 	totalCO2Emission 	114.68816442705
scalar MyScenario.node[95].appl 	generatedWSMs 	1
scalar MyScenario.node[95].appl 	receivedWSMs 	3
scalar MyScenario.node[95].appl 	generatedBSMs 	0
scalar MyScenario.node[95].appl 	receivedBSMs 	0
scalar MyScenario.node[95].appl 	generatedWSAs 	0
scalar MyScenario.node[95].appl 	receivedWSAs 	0
scalar MyScenario.node[95].nic.phy80211p 	busyTime 	0.00017846153846154
scalar MyScenario.node[95].nic.mac1609_4 	ReceivedUnicastPackets 	0
scalar MyScenario.node[95].nic.mac1609_4 	ReceivedBroadcasts 	3
scalar MyScenario.node[95].nic.mac1609_4 	SentPackets 	1
scalar MyScenario.node[95].nic.mac1609_4 	SNIRLostPackets 	27
scalar MyScenario.node[95].nic.mac1609_4 	RXTXLostPackets 	7
scalar MyScenario.node[95].nic.mac1609_4 	TotalLostPackets 	34
scalar MyScenario.node[95].nic.mac1609_4 	DroppedPacketsInMac 	0
scalar MyScenario.node[95].nic.mac1609_4 	TooLittleTime 	0
scalar MyScenario.node[95].nic.mac1609_4 	TimesIntoBackoff 	1
scalar MyScenario.node[95].nic.mac1609_4 	SlotsBackoff 	1
scalar MyScenario.node[95].nic.mac1609_4 	NumInternalContention 	0
scalar MyScenario.node[95].nic.mac1609_4 	totalBusyTime 	0.002321006794
scalar MyScenario.node[95].veinsmobility 	startTime 	1
scalar MyScenario.node[95].veinsmobility 	totalTime 	38
scalar MyScenario.node[95].veinsmobility 	stopTime 	40
scalar MyScenario.node[95].veinsmobility 	minSpeed 	1.0264355226966
scalar MyScenario.node[95].veinsmobility 	maxSpeed 	13.885071737831
scalar MyScenario.node[95].veinsmobility 	totalDistance 	374.66798323073
scalar MyScenario.node[95].veinsmobility 	totalCO2Emission 	134.76420076406
scalar MyScenario.node[299].appl 	generatedWSMs 	0
scalar MyScenario.node[299].appl 	receivedWSMs 	0
scalar MyScenario.node[299].appl 	generatedBSMs 	0
scalar MyScenario.node[299].appl 	receivedBSMs 	0
scalar MyScenario.node[299].appl 	generatedWSAs 	0
scalar MyScenario.node[299].appl 	receivedWSAs 	0
scalar MyScenario.node[299].nic.phy80211p 	busyTime 	0.00021653333333333
scalar MyScenario.node[299].nic.mac1609_4 	ReceivedUnicastPackets 	0
scalar MyScenario.node[299].nic.mac1609_4 	ReceivedBroadcasts 	0
scalar MyScenario.node[299].nic.mac1609_4 	SentPackets 	0
scalar MyScenario.node[299].nic.mac1609_4 	SNIRLostPackets 	28
scalar MyScenario.node[299].nic.mac1609_4 	RXTXLostPackets 	0
scalar MyScenario.node[299].nic.mac1609_4 	TotalLostPackets 	28
scalar MyScenario.node[299].nic.mac1609_4 	DroppedPacketsInMac 	0
scalar MyScenario.node[299].nic.mac1609_4 	TooLittleTime 	0
scalar MyScenario.node[299].nic.mac1609_4 	TimesIntoBackoff 	0
scalar MyScenario.node[299].nic.mac1609_4 	SlotsBackoff 	0
scalar MyScenario.node[299].nic.mac1609_4 	NumInternalContention 	0
scalar MyScenario.node[299].nic.mac1609_4 	totalBusyTime 	0.001392
scalar MyScenario.node[299].veinsmobility 	startTime 	11
scalar MyScenario.node[299].veinsmobility 	totalTime 	29
scalar MyScenario.node[299].veinsmobility 	stopTime 	41
scalar MyScenario.node[299].veinsmobility 	minSpeed 	12.654461155483
scalar MyScenario.node[299].veinsmobility 	maxSpeed 	13.89014024185
scalar MyScenario.node[299].veinsmobility 	totalDistance 	383.84711449113
scalar MyScenario.node[299].veinsmobility 	totalCO2Emission 	62.586726285474
scalar MyScenario.node[24].appl 	generatedWSMs 	1
scalar MyScenario.node[24].appl 	receivedWSMs 	7
scalar MyScenario.node[24].appl 	generatedBSMs 	0
scalar MyScenario.node[24].appl 	receivedBSMs 	0
scalar MyScenario.node[24].appl 	generatedWSAs 	0
scalar MyScenario.node[24].appl 	receivedWSAs 	0
scalar MyScenario.node[24].nic.phy80211p 	busyTime 	0.00025463414634146
scalar MyScenario.node[24].nic.mac1609_4 	ReceivedUnicastPackets 	0
scalar MyScenario.node[24].nic.mac1609_4 	ReceivedBroadcasts 	7
scalar MyScenario.node[24].nic.mac1609_4 	SentPackets 	1
scalar MyScenario.node[24].nic.mac1609_4 	SNIRLostPackets 	38
scalar MyScenario.node[24].nic.mac1609_4 	RXTXLostPackets 	4
scalar MyScenario.node[24].nic.mac1609_4 	TotalLostPackets 	42
scalar MyScenario.node[24].nic.mac1609_4 	DroppedPacketsInMac 	0
scalar MyScenario.node[24].nic.mac1609_4 	TooLittleTime 	0
scalar MyScenario.node[24].nic.mac1609_4 	TimesIntoBackoff 	1
scalar MyScenario.node[24].nic.mac1609_4 	SlotsBackoff 	2
scalar MyScenario.node[24].nic.mac1609_4 	NumInternalContention 	0
scalar MyScenario.node[24].nic.mac1609_4 	totalBusyTime 	0.003249210436
scalar MyScenario.node[24].veinsmobility 	startTime 	1
scalar MyScenario.node[24].veinsmobility 	totalTime 	40
scalar MyScenario.node[24].veinsmobility 	stopTime 	42
scalar MyScenario.node[24].veinsmobility 	minSpeed 	1.847483325121
scalar MyScenario.node[24].veinsmobility 	maxSpeed 	13.788754208363
scalar MyScenario.node[24].veinsmobility 	totalDistance 	470.08800459141
scalar MyScenario.node[24].veinsmobility 	totalCO2Emission 	117.92640711356
scalar MyScenario.node[1].appl 	generatedWSMs 	0
scalar MyScenario.node[1].appl 	receivedWSMs 	0
scalar MyScenario.node[1].appl 	generatedBSMs 	0
scalar MyScenario.node[1].appl 	receivedBSMs 	0
scalar MyScenario.node[1].appl 	generatedWSAs 	0
scalar MyScenario.node[1].appl 	receivedWSAs 	0
scalar MyScenario.node[1].nic.phy80211p 	busyTime 	0.00014712195121951
scalar MyScenario.node[1].nic.mac1609_4 	ReceivedUnicastPackets 	0
scalar MyScenario.node[1].nic.mac1609_4 	ReceivedBroadcasts 	0
scalar MyScenario.node[1].nic.mac1609_4 	SentPackets 	0
scalar MyScenario.node[1].nic.mac1609_4 	SNIRLostPackets 	26
scalar MyScenario.node[1].nic.mac1609_4 	RXTXLostPackets 	0
scalar MyScenario.node[1].nic.mac1609_4 	TotalLostPackets 	26
scalar MyScenario.node[1].nic.mac1609_4 	DroppedPacketsInMac 	0
scalar MyScenario.node[1].nic.mac1609_4 	TooLittleTime 	0
scalar MyScenario.node[1].nic.mac1609_4 	TimesIntoBackoff 	0
scalar MyScenario.node[1].nic.mac1609_4 	SlotsBackoff 	0
scalar MyScenario.node[1].nic.mac1609_4 	NumInternalContention 	0
scalar MyScenario.node[1].nic.mac1609_4 	totalBusyTime 	0.000928
scalar MyScenario.node[1].veinsmobility 	startTime 	1
scalar MyScenario.node[1].veinsmobility 	totalTime 	40
scalar MyScenario.node[1].veinsmobility 	stopTime 	42
scalar MyScenario.node[1].veinsmobility 	minSpeed 	1.7755850838963
scalar MyScenario.node[1].veinsmobility 	maxSpeed 	13.875821796618
scalar MyScenario.node[1].veinsmobility 	totalDistance 	478.19193931477
scalar MyScenario.node[1].veinsmobility 	totalCO2Emission 	121.5148831009
scalar MyScenario.node[55].appl 	generatedWSMs 	0
scalar MyScenario.node[55].appl 	receivedWSMs 	0
scalar MyScenario.node[55].appl 	generatedBSMs 	0
scalar MyScenario.node[55].appl 	receivedBSMs 	0
scalar MyScenario.node[55].appl 	generatedWSAs 	0
scalar MyScenario.node[55].appl 	receivedWSAs 	0
scalar MyScenario.node[55].nic.phy80211p 	busyTime 	3.3951219512195e-05
scalar MyScenario.node[55].nic.mac1609_4 	ReceivedUnicastPackets 	0
scalar MyScenario.node[55].nic.mac1609_4 	ReceivedBroadcasts 	0
scalar MyScenario.node[55].nic.mac1609_4 	SentPackets 	0
scalar MyScenario.node[55].nic.mac1609_4 	SNIRLostPackets 	6
scalar MyScenario.node[55].nic.mac1609_4 	RXTXLostPackets 	0
scalar MyScenario.node[55].nic.mac1609_4 	TotalLostPackets 	6
scalar MyScenario.node[55].nic.mac1609_4 	DroppedPacketsInMac 	0
scalar MyScenario.node[55].nic.mac1609_4 	TooLittleTime 	0
scalar MyScenario.node[55].nic.mac1609_4 	TimesIntoBackoff 	0
scalar MyScenario.node[55].nic.mac1609_4 	SlotsBackoff 	0
scalar MyScenario.node[55].nic.mac1609_4 	NumInternalContention 	0
scalar MyScenario.node[55].nic.mac1609_4 	totalBusyTime 	0.000464
scalar MyScenario.node[55].veinsmobility 	startTime 	1
scalar MyScenario.node[55].veinsmobility 	totalTime 	40
scalar MyScenario.node[55].veinsmobility 	stopTime 	42
scalar MyScenario.node[55].veinsmobility 	minSpeed 	2.0146683062427
scalar MyScenario.node[55].veinsmobility 	maxSpeed 	13.880847924249
scalar MyScenario.node[55].veinsmobility 	totalDistance 	467.92395950832
scalar MyScenario.node[55].veinsmobility 	totalCO2Emission 	123.4386228364
scalar MyScenario.node[196].appl 	generatedWSMs 	0
scalar MyScenario.node[196].appl 	receivedWSMs 	0
scalar MyScenario.node[196].appl 	generatedBSMs 	0
scalar MyScenario.node[196].appl 	receivedBSMs 	0
scalar MyScenario.node[196].appl 	generatedWSAs 	0
scalar MyScenario.node[196].appl 	receivedWSAs 	0
scalar MyScenario.node[196].nic.phy80211p 	busyTime 	0
scalar MyScenario.node[196].nic.mac1609_4 	ReceivedUnicastPackets 	0
scalar MyScenario.node[196].nic.mac1609_4 	ReceivedBroadcasts 	0
scalar MyScenario.node[196].nic.mac1609_4 	SentPackets 	0
scalar MyScenario.node[196].nic.mac1609_4 	SNIRLostPackets 	0
scalar MyScenario.node[196].nic.mac1609_4 	RXTXLostPackets 	0
scalar MyScenario.node[196].nic.mac1609_4 	TotalLostPackets 	0
scalar MyScenario.node[196].nic.mac1609_4 	DroppedPacketsInMac 	0
scalar MyScenario.node[196].nic.mac1609_4 	TooLittleTime 	0
scalar MyScenario.node[196].nic.mac1609_4 	TimesIntoBackoff 	0
scalar MyScenario.node[196].nic.mac1609_4 	SlotsBackoff 	0
scalar MyScenario.node[196].nic.mac1609_4 	NumInternalContention 	0
scalar MyScenario.node[196].nic.mac1609_4 	totalBusyTime 	0
scalar MyScenario.node[196].veinsmobility 	startTime 	4
scalar MyScenario.node[196].veinsmobility 	totalTime 	38
scalar MyScenario.node[196].veinsmobility 	stopTime 	43
scalar MyScenario.node[196].veinsmobility 	minSpeed 	0.00032979645560859
scalar MyScenario.node[196].veinsmobility 	maxSpeed 	13.744584525167
scalar MyScenario.node[196].veinsmobility 	totalDistance 	283.37532744731
scalar MyScenario.node[196].veinsmobility 	totalCO2Emission 	126.46679111693
scalar MyScenario.node[62].appl 	generatedWSMs 	1
scalar MyScenario.node[62].appl 	receivedWSMs 	11
scalar MyScenario.node[62].appl 	generatedBSMs 	0
scalar MyScenario.node[62].appl 	receivedBSMs 	0
scalar MyScenario.node[62].appl 	generatedWSAs 	0
scalar MyScenario.node[62].appl 	receivedWSAs 	0
scalar MyScenario.node[62].nic.phy80211p 	busyTime 	0.00032590476190476
scalar MyScenario.node[62].nic.mac1609_4 	ReceivedUnicastPackets 	0
scalar MyScenario.node[62].nic.mac1609_4 	ReceivedBroadcasts 	11
scalar MyScenario.node[62].nic.mac1609_4 	SentPackets 	1
scalar MyScenario.node[62].nic.mac1609_4 	SNIRLostPackets 	48
scalar MyScenario.node[62].nic.mac1609_4 	RXTXLostPackets 	8
scalar MyScenario.node[62].nic.mac1609_4 	TotalLostPackets 	56
scalar MyScenario.node[62].nic.mac1609_4 	DroppedPacketsInMac 	0
scalar MyScenario.node[62].nic.mac1609_4 	TooLittleTime 	0
scalar MyScenario.node[62].nic.mac1609_4 	TimesIntoBackoff 	1
scalar MyScenario.node[62].nic.mac1609_4 	SlotsBackoff 	3
scalar MyScenario.node[62].nic.mac1609_4 	NumInternalContention 	0
scalar MyScenario.node[62].nic.mac1609_4 	totalBusyTime 	0.004177111915
scalar MyScenario.node[62].veinsmobility 	startTime 	1
scalar MyScenario.node[62].veinsmobility 	totalTime 	41
scalar MyScenario.node[62].veinsmobility 	stopTime 	43
scalar MyScenario.node[62].veinsmobility 	minSpeed 	1.5307937568985
scalar MyScenario.node[62].veinsmobility 	maxSpeed 	13.866446443647
scalar MyScenario.node[62].veinsmobility 	totalDistance 	463.83201737563
scalar MyScenario.node[62].veinsmobility 	totalCO2Emission 	137.61207362065
scalar MyScenario.node[120].appl 	generatedWSMs 	0
scalar MyScenario.node[120].appl 	receivedWSMs 	0
scalar MyScenario.node[120].appl 	generatedBSMs 	0
scalar MyScenario.node[120].appl 	receivedBSMs 	0
scalar MyScenario.node[120].appl 	generatedWSAs 	0
scalar MyScenario.node[120].appl 	receivedWSAs 	0
scalar MyScenario.node[120].nic.phy80211p 	busyTime 	0
scalar MyScenario.node[120].nic.mac1609_4 	ReceivedUnicastPackets 	0
scalar MyScenario.node[120].nic.mac1609_4 	ReceivedBroadcasts 	0
scalar MyScenario.node[120].nic.mac1609_4 	SentPackets 	0
scalar MyScenario.node[120].nic.mac1609_4 	SNIRLostPackets 	0
scalar MyScenario.node[120].nic.mac1609_4 	RXTXLostPackets 	0
scalar MyScenario.node[120].nic.mac1609_4 	TotalLostPackets 	0
scalar MyScenario.node[120].nic.mac1609_4 	DroppedPacketsInMac 	0
scalar MyScenario.node[120].nic.mac1609_4 	TooLittleTime 	0
scalar MyScenario.node[120].nic.mac1609_4 	TimesIntoBackoff 	0
scalar MyScenario.node[120].nic.mac1609_4 	SlotsBackoff 	0
scalar MyScenario.node[120].nic.mac1609_4 	NumInternalContention 	0
scalar MyScenario.node[120].nic.mac1609_4 	totalBusyTime 	0
scalar MyScenario.node[120].veinsmobility 	startTime 	1
scalar MyScenario.node[120].veinsmobility 	totalTime 	42
scalar MyScenario.node[120].veinsmobility 	stopTime 	44
scalar MyScenario.node[120].veinsmobility 	minSpeed 	1.9052835428622
scalar MyScenario.node[120].veinsmobility 	maxSpeed 	13.850520281168
scalar MyScenario.node[120].veinsmobility 	totalDistance 	455.19348283062
scalar MyScenario.node[120].veinsmobility 	totalCO2Emission 	156.23714844792
scalar MyScenario.node[132].appl 	generatedWSMs 	1
scalar MyScenario.node[132].appl 	receivedWSMs 	1
scalar MyScenario.node[132].appl 	generatedBSMs 	0
scalar MyScenario.node[132].appl 	receivedBSMs 	0
scalar MyScenario.node[132].appl 	generatedWSAs 	0
scalar MyScenario.node[132].appl 	receivedWSAs 	0
scalar MyScenario.node[132].nic.phy80211p 	busyTime 	3.2372093023256e-05
scalar MyScenario.node[132].nic.mac1609_4 	ReceivedUnicastPackets 	0
scalar MyScenario.node[132].nic.mac1609_4 	ReceivedBroadcasts 	1
scalar MyScenario.node[132].nic.mac1609_4 	SentPackets 	1
scalar MyScenario.node[132].nic.mac1609_4 	SNIRLostPackets 	5
scalar MyScenario.node[132].nic.mac1609_4 	RXTXLostPackets 	9
scalar MyScenario.node[132].nic.mac1609_4 	TotalLostPackets 	14
scalar MyScenario.node[132].nic.mac1609_4 	DroppedPacketsInMac 	0
scalar MyScenario.node[132].nic.mac1609_4 	TooLittleTime 	0
scalar MyScenario.node[132].nic.mac1609_4 	TimesIntoBackoff 	1
scalar MyScenario.node[132].nic.mac1609_4 	SlotsBackoff 	1
scalar MyScenario.node[132].nic.mac1609_4 	NumInternalContention 	0
scalar MyScenario.node[132].nic.mac1609_4 	totalBusyTime 	0.000929000268
scalar MyScenario.node[132].veinsmobility 	startTime 	1
scalar MyScenario.node[132].veinsmobility 	totalTime 	42
scalar MyScenario.node[132].veinsmobility 	stopTime 	44
scalar MyScenario.node[132].veinsmobility 	minSpeed 	1.462871120288
scalar MyScenario.node[132].veinsmobility 	maxSpeed 	13.830995242111
scalar MyScenario.node[132].veinsmobility 	totalDistance 	475.36210820273
scalar MyScenario.node[132].veinsmobility 	totalCO2Emission 	136.70013429836
scalar MyScenario.node[211].appl 	generatedWSMs 	0
scalar MyScenario.node[211].appl 	receivedWSMs 	0
scalar MyScenario.node[211].appl 	generatedBSMs 	0
scalar MyScenario.node[211].appl 	receivedBSMs 	0
scalar MyScenario.node[211].appl 	generatedWSAs 	0
scalar MyScenario.node[211].appl 	receivedWSAs 	0
scalar MyScenario.node[211].nic.phy80211p 	busyTime 	0
scalar MyScenario.node[211].nic.mac1609_4 	ReceivedUnicastPackets 	0
scalar MyScenario.node[211].nic.mac1609_4 	ReceivedBroadcasts 	0
scalar MyScenario.node[211].nic.mac1609_4 	SentPackets 	0
scalar MyScenario.node[211].nic.mac1609_4 	SNIRLostPackets 	0
scalar MyScenario.node[211].nic.mac1609_4 	RXTXLostPackets 	0
scalar MyScenario.node[211].nic.mac1609_4 	TotalLostPackets 	0
scalar MyScenario.node[211].nic.mac1609_4 	DroppedPacketsInMac 	0
scalar MyScenario.node[211].nic.mac1609_4 	TooLittleTime 	0
scalar MyScenario.node[211].nic.mac1609_4 	TimesIntoBackoff 	0
scalar MyScenario.node[211].nic.mac1609_4 	SlotsBackoff 	0
scalar MyScenario.node[211].nic.mac1609_4 	NumInternalContention 	0
scalar MyScenario.node[211].nic.mac1609_4 	totalBusyTime 	0
scalar MyScenario.node[211].veinsmobility 	startTime 	4
scalar MyScenario.node[211].veinsmobility 	totalTime 	40
scalar MyScenario.node[211].veinsmobility 	stopTime 	45
scalar MyScenario.node[211].veinsmobility 	minSpeed 	0.71153417554866
scalar MyScenario.node[211].veinsmobility 	maxSpeed 	13.749731498025
scalar MyScenario.node[211].veinsmobility 	totalDistance 	373.7485432525
scalar MyScenario.node[211].veinsmobility 	totalCO2Emission 	121.16175090189
scalar MyScenario.node[140].appl 	generatedWSMs 	0
scalar MyScenario.node[140].appl 	receivedWSMs 	0
scalar MyScenario.node[140].appl 	generatedBSMs 	0
scalar MyScenario.node[140].appl 	receivedBSMs 	0
scalar MyScenario.node[140].appl 	generatedWSAs 	0
scalar MyScenario.node[140].appl 	receivedWSAs 	0
scalar MyScenario.node[140].nic.phy80211p 	busyTime 	1.5818181818182e-05
scalar MyScenario.node[140].nic.mac1609_4 	ReceivedUnicastPackets 	0
scalar MyScenario.node[140].nic.mac1609_4 	ReceivedBroadcasts 	0
scalar MyScenario.node[140].nic.mac1609_4 	SentPackets 	0
scalar MyScenario.node[140].nic.mac1609_4 	SNIRLostPackets 	3
scalar MyScenario.node[140].nic.mac1609_4 	RXTXLostPackets 	0
scalar MyScenario.node[140].nic.mac1609_4 	TotalLostPackets 	3
scalar MyScenario.node[140].nic.mac1609_4 	DroppedPacketsInMac 	0
scalar MyScenario.node[140].nic.mac1609_4 	TooLittleTime 	0
scalar MyScenario.node[140].nic.mac1609_4 	TimesIntoBackoff 	0
scalar MyScenario.node[140].nic.mac1609_4 	SlotsBackoff 	0
scalar MyScenario.node[140].nic.mac1609_4 	NumInternalContention 	0
scalar MyScenario.node[140].nic.mac1609_4 	totalBusyTime 	0.000232
scalar MyScenario.node[140].veinsmobility 	startTime 	1
scalar MyScenario.node[140].veinsmobility 	totalTime 	43
scalar MyScenario.node[140].veinsmobility 	stopTime 	45
scalar MyScenario.node[140].veinsmobility 	minSpeed 	2.220361955394
scalar MyScenario.node[140].veinsmobility 	maxSpeed 	13.826270838152
scalar MyScenario.node[140].veinsmobility 	totalDistance 	465.13943562201
scalar MyScenario.node[140].veinsmobility 	totalCO2Emission 	159.4250383407
scalar MyScenario.node[91].appl 	generatedWSMs 	1
scalar MyScenario.node[91].appl 	receivedWSMs 	7
scalar MyScenario.node[91].appl 	generatedBSMs 	0
scalar MyScenario.node[91].appl 	receivedBSMs 	0
scalar MyScenario.node[91].appl 	generatedWSAs 	0
scalar MyScenario.node[91].appl 	receivedWSAs 	0
scalar MyScenario.node[91].nic.phy80211p 	busyTime 	0.00018454545454545
scalar MyScenario.node[91].nic.mac1609_4 	ReceivedUnicastPackets 	0
scalar MyScenario.node[91].nic.mac1609_4 	ReceivedBroadcasts 	7
scalar MyScenario.node[91].nic.mac1609_4 	SentPackets 	1
scalar MyScenario.node[91].nic.mac1609_4 	SNIRLostPackets 	28
scalar MyScenario.node[91].nic.mac1609_4 	RXTXLostPackets 	11
scalar MyScenario.node[91].nic.mac1609_4 	TotalLostPackets 	39
scalar MyScenario.node[91].nic.mac1609_4 	DroppedPacketsInMac 	0
scalar MyScenario.node[91].nic.mac1609_4 	TooLittleTime 	0
scalar MyScenario.node[91].nic.mac1609_4 	TimesIntoBackoff 	1
scalar MyScenario.node[91].nic.mac1609_4 	SlotsBackoff 	3
scalar MyScenario.node[91].nic.mac1609_4 	NumInternalContention 	0
scalar MyScenario.node[91].nic.mac1609_4 	totalBusyTime 	0.002785010634
scalar MyScenario.node[91].veinsmobility 	startTime 	1
scalar MyScenario.node[91].veinsmobility 	totalTime 	43
scalar MyScenario.node[91].veinsmobility 	stopTime 	45
scalar MyScenario.node[91].veinsmobility 	minSpeed 	1.7208836935461
scalar MyScenario.node[91].veinsmobility 	maxSpeed 	13.856287848484
scalar MyScenario.node[91].veinsmobility 	totalDistance 	478.45116362415
scalar MyScenario.node[91].veinsmobility 	totalCO2Emission 	146.78712066108
scalar MyScenario.node[186].appl 	generatedWSMs 	0
scalar MyScenario.node[186].appl 	receivedWSMs 	0
scalar MyScenario.node[186].appl 	generatedBSMs 	0
scalar MyScenario.node[186].appl 	receivedBSMs 	0
scalar MyScenario.node[186].appl 	generatedWSAs 	0
scalar MyScenario.node[186].appl 	receivedWSAs 	0
scalar MyScenario.node[186].nic.phy80211p 	busyTime 	2.1090909090909e-05
scalar MyScenario.node[186].nic.mac1609_4 	ReceivedUnicastPackets 	0
scalar MyScenario.node[186].nic.mac1609_4 	ReceivedBroadcasts 	0
scalar MyScenario.node[186].nic.mac1609_4 	SentPackets 	0
scalar MyScenario.node[186].nic.mac1609_4 	SNIRLostPackets 	4
scalar MyScenario.node[186].nic.mac1609_4 	RXTXLostPackets 	0
scalar MyScenario.node[186].nic.mac1609_4 	TotalLostPackets 	4
scalar MyScenario.node[186].nic.mac1609_4 	DroppedPacketsInMac 	0
scalar MyScenario.node[186].nic.mac1609_4 	TooLittleTime 	0
scalar MyScenario.node[186].nic.mac1609_4 	TimesIntoBackoff 	0
scalar MyScenario.node[186].nic.mac1609_4 	SlotsBackoff 	0
scalar MyScenario.node[186].nic.mac1609_4 	NumInternalContention 	0
scalar MyScenario.node[186].nic.mac1609_4 	totalBusyTime 	0.000232
scalar MyScenario.node[186].veinsmobility 	startTime 	1
scalar MyScenario.node[186].veinsmobility 	totalTime 	43
scalar MyScenario.node[186].veinsmobility 	stopTime 	45
scalar MyScenario.node[186].veinsmobility 	minSpeed 	1.9720282603288
scalar MyScenario.node[186].veinsmobility 	maxSpeed 	13.758735503699
scalar MyScenario.node[186].veinsmobility 	totalDistance 	467.71066237612
scalar MyScenario.node[186].veinsmobility 	totalCO2Emission 	148.43908248017
scalar MyScenario.node[30].appl 	generatedWSMs 	0
scalar MyScenario.node[30].appl 	receivedWSMs 	0
scalar MyScenario.node[30].appl 	generatedBSMs 	0
scalar MyScenario.node[30].appl 	receivedBSMs 	0
scalar MyScenario.node[30].appl 	generatedWSAs 	0
scalar MyScenario.node[30].appl 	receivedWSAs 	0
scalar MyScenario.node[30].nic.phy80211p 	busyTime 	2.1090909090909e-05
scalar MyScenario.node[30].nic.mac1609_4 	ReceivedUnicastPackets 	0
scalar MyScenario.node[30].nic.mac1609_4 	ReceivedBroadcasts 	0
scalar MyScenario.node[30].nic.mac1609_4 	SentPackets 	0
scalar MyScenario.node[30].nic.mac1609_4 	SNIRLostPackets 	4
scalar MyScenario.node[30].nic.mac1609_4 	RXTXLostPackets 	0
scalar MyScenario.node[30].nic.mac1609_4 	TotalLostPackets 	4
scalar MyScenario.node[30].nic.mac1609_4 	DroppedPacketsInMac 	0
scalar MyScenario.node[30].nic.mac1609_4 	TooLittleTime 	0
scalar MyScenario.node[30].nic.mac1609_4 	TimesIntoBackoff 	0
scalar MyScenario.node[30].nic.mac1609_4 	SlotsBackoff 	0
scalar MyScenario.node[30].nic.mac1609_4 	NumInternalContention 	0
scalar MyScenario.node[30].nic.mac1609_4 	totalBusyTime 	0.000464
scalar MyScenario.node[30].veinsmobility 	startTime 	1
scalar MyScenario.node[30].veinsmobility 	totalTime 	43
scalar MyScenario.node[30].veinsmobility 	stopTime 	45
scalar MyScenario.node[30].veinsmobility 	minSpeed 	2.5994493823964
scalar MyScenario.node[30].veinsmobility 	maxSpeed 	13.880582460412
scalar MyScenario.node[30].veinsmobility 	totalDistance 	482.2602405781
scalar MyScenario.node[30].veinsmobility 	totalCO2Emission 	154.2715740083
scalar MyScenario.node[274].appl 	generatedWSMs 	0
scalar MyScenario.node[274].appl 	receivedWSMs 	0
scalar MyScenario.node[274].appl 	generatedBSMs 	0
scalar MyScenario.node[274].appl 	receivedBSMs 	0
scalar MyScenario.node[274].appl 	generatedWSAs 	0
scalar MyScenario.node[274].appl 	receivedWSAs 	0
scalar MyScenario.node[274].nic.phy80211p 	busyTime 	0
scalar MyScenario.node[274].nic.mac1609_4 	ReceivedUnicastPackets 	0
scalar MyScenario.node[274].nic.mac1609_4 	ReceivedBroadcasts 	0
scalar MyScenario.node[274].nic.mac1609_4 	SentPackets 	0
scalar MyScenario.node[274].nic.mac1609_4 	SNIRLostPackets 	0
scalar MyScenario.node[274].nic.mac1609_4 	RXTXLostPackets 	0
scalar MyScenario.node[274].nic.mac1609_4 	TotalLostPackets 	0
scalar MyScenario.node[274].nic.mac1609_4 	DroppedPacketsInMac 	0
scalar MyScenario.node[274].nic.mac1609_4 	TooLittleTime 	0
scalar MyScenario.node[274].nic.mac1609_4 	TimesIntoBackoff 	0
scalar MyScenario.node[274].nic.mac1609_4 	SlotsBackoff 	0
scalar MyScenario.node[274].nic.mac1609_4 	NumInternalContention 	0
scalar MyScenario.node[274].nic.mac1609_4 	totalBusyTime 	0
scalar MyScenario.node[274].veinsmobility 	startTime 	4
scalar MyScenario.node[274].veinsmobility 	totalTime 	40
scalar MyScenario.node[274].veinsmobility 	stopTime 	45
scalar MyScenario.node[274].veinsmobility 	minSpeed 	1.3315001957119
scalar MyScenario.node[274].veinsmobility 	maxSpeed 	13.86188362895
scalar MyScenario.node[274].veinsmobility 	totalDistance 	472.12976599272
scalar MyScenario.node[274].veinsmobility 	totalCO2Emission 	123.08639644907
scalar MyScenario.node[22].appl 	generatedWSMs 	0
scalar MyScenario.node[22].appl 	receivedWSMs 	0
scalar MyScenario.node[22].appl 	generatedBSMs 	0
scalar MyScenario.node[22].appl 	receivedBSMs 	0
scalar MyScenario.node[22].appl 	generatedWSAs 	0
scalar MyScenario.node[22].appl 	receivedWSAs 	0
scalar MyScenario.node[22].nic.phy80211p 	busyTime 	0
scalar MyScenario.node[22].nic.mac1609_4 	ReceivedUnicastPackets 	0
scalar MyScenario.node[22].nic.mac1609_4 	ReceivedBroadcasts 	0
scalar MyScenario.node[22].nic.mac1609_4 	SentPackets 	0
scalar MyScenario.node[22].nic.mac1609_4 	SNIRLostPackets 	0
scalar MyScenario.node[22].nic.mac1609_4 	RXTXLostPackets 	0
scalar MyScenario.node[22].nic.mac1609_4 	TotalLostPackets 	0
scalar MyScenario.node[22].nic.mac1609_4 	DroppedPacketsInMac 	0
scalar MyScenario.node[22].nic.mac1609_4 	TooLittleTime 	0
scalar MyScenario.node[22].nic.mac1609_4 	TimesIntoBackoff 	0
scalar MyScenario.node[22].nic.mac1609_4 	SlotsBackoff 	0
scalar MyScenario.node[22].nic.mac1609_4 	NumInternalContention 	0
scalar MyScenario.node[22].nic.mac1609_4 	totalBusyTime 	0
scalar MyScenario.node[22].veinsmobility 	startTime 	1
scalar MyScenario.node[22].veinsmobility 	totalTime 	44
scalar MyScenario.node[22].veinsmobility 	stopTime 	46
scalar MyScenario.node[22].veinsmobility 	minSpeed 	0.075953374814922
scalar MyScenario.node[22].veinsmobility 	maxSpeed 	13.86998868701
scalar MyScenario.node[22].veinsmobility 	totalDistance 	474.45068899874
scalar MyScenario.node[22].veinsmobility 	totalCO2Emission 	139.93394482133
scalar MyScenario.node[27].appl 	generatedWSMs 	0
scalar MyScenario.node[27].appl 	receivedWSMs 	0
scalar MyScenario.node[27].appl 	generatedBSMs 	0
scalar MyScenario.node[27].appl 	receivedBSMs 	0
scalar MyScenario.node[27].appl 	generatedWSAs 	0
scalar MyScenario.node[27].appl 	receivedWSAs 	0
scalar MyScenario.node[27].nic.phy80211p 	busyTime 	0.00014951111111111
scalar MyScenario.node[27].nic.mac1609_4 	ReceivedUnicastPackets 	0
scalar MyScenario.node[27].nic.mac1609_4 	ReceivedBroadcasts 	0
scalar MyScenario.node[27].nic.mac1609_4 	SentPackets 	0
scalar MyScenario.node[27].nic.mac1609_4 	SNIRLostPackets 	29
scalar MyScenario.node[27].nic.mac1609_4 	RXTXLostPackets 	0
scalar MyScenario.node[27].nic.mac1609_4 	TotalLostPackets 	29
scalar MyScenario.node[27].nic.mac1609_4 	DroppedPacketsInMac 	0
scalar MyScenario.node[27].nic.mac1609_4 	TooLittleTime 	0
scalar MyScenario.node[27].nic.mac1609_4 	TimesIntoBackoff 	0
scalar MyScenario.node[27].nic.mac1609_4 	SlotsBackoff 	0
scalar MyScenario.node[27].nic.mac1609_4 	NumInternalContention 	0
scalar MyScenario.node[27].nic.mac1609_4 	totalBusyTime 	0.001392
scalar MyScenario.node[27].veinsmobility 	startTime 	1
scalar MyScenario.node[27].veinsmobility 	totalTime 	44
scalar MyScenario.node[27].veinsmobility 	stopTime 	46
scalar MyScenario.node[27].veinsmobility 	minSpeed 	1.5194331671344
scalar MyScenario.node[27].veinsmobility 	maxSpeed 	13.897199763544
scalar MyScenario.node[27].veinsmobility 	totalDistance 	471.81529001076
scalar MyScenario.node[27].veinsmobility 	totalCO2Emission 	143.3626680966
scalar MyScenario.node[3].appl 	generatedWSMs 	0
scalar MyScenario.node[3].appl 	receivedWSMs 	0
scalar MyScenario.node[3].appl 	generatedBSMs 	0
scalar MyScenario.node[3].appl 	receivedBSMs 	0
scalar MyScenario.node[3].appl 	generatedWSAs 	0
scalar MyScenario.node[3].appl 	receivedWSAs 	0
scalar MyScenario.node[3].nic.phy80211p 	busyTime 	4.1244444444444e-05
scalar MyScenario.node[3].nic.mac1609_4 	ReceivedUnicastPackets 	0
scalar MyScenario.node[3].nic.mac1609_4 	ReceivedBroadcasts 	0
scalar MyScenario.node[3].nic.mac1609_4 	SentPackets 	0
scalar MyScenario.node[3].nic.mac1609_4 	SNIRLostPackets 	8
scalar MyScenario.node[3].nic.mac1609_4 	RXTXLostPackets 	0
scalar MyScenario.node[3].nic.mac1609_4 	TotalLostPackets 	8
scalar MyScenario.node[3].nic.mac1609_4 	DroppedPacketsInMac 	0
scalar MyScenario.node[3].nic.mac1609_4 	TooLittleTime 	0
scalar MyScenario.node[3].nic.mac1609_4 	TimesIntoBackoff 	0
scalar MyScenario.node[3].nic.mac1609_4 	SlotsBackoff 	0
scalar MyScenario.node[3].nic.mac1609_4 	NumInternalContention 	0
scalar MyScenario.node[3].nic.mac1609_4 	totalBusyTime 	0.000464
scalar MyScenario.node[3].veinsmobility 	startTime 	1
scalar MyScenario.node[3].veinsmobility 	totalTime 	44
scalar MyScenario.node[3].veinsmobility 	stopTime 	46
scalar MyScenario.node[3].veinsmobility 	minSpeed 	2.4972278663656
scalar MyScenario.node[3].veinsmobility 	maxSpeed 	13.844658547733
scalar MyScenario.node[3].veinsmobility 	totalDistance 	461.64827002409
scalar MyScenario.node[3].veinsmobility 	totalCO2Emission 	167.84922050532
scalar MyScenario.node[63].appl 	generatedWSMs 	0
scalar MyScenario.node[63].appl 	receivedWSMs 	0
scalar MyScenario.node[63].appl 	generatedBSMs 	0
scalar MyScenario.node[63].appl 	receivedBSMs 	0
scalar MyScenario.node[63].appl 	generatedWSAs 	0
scalar MyScenario.node[63].appl 	receivedWSAs 	0
scalar MyScenario.node[63].nic.phy80211p 	busyTime 	0.00010591304347826
scalar MyScenario.node[63].nic.mac1609_4 	ReceivedUnicastPackets 	0
scalar MyScenario.node[63].nic.mac1609_4 	ReceivedBroadcasts 	0
scalar MyScenario.node[63].nic.mac1609_4 	SentPackets 	0
scalar MyScenario.node[63].nic.mac1609_4 	SNIRLostPackets 	21
scalar MyScenario.node[63].nic.mac1609_4 	RXTXLostPackets 	0
scalar MyScenario.node[63].nic.mac1609_4 	TotalLostPackets 	21
scalar MyScenario.node[63].nic.mac1609_4 	DroppedPacketsInMac 	0
scalar MyScenario.node[63].nic.mac1609_4 	TooLittleTime 	0
scalar MyScenario.node[63].nic.mac1609_4 	TimesIntoBackoff 	0
scalar MyScenario.node[63].nic.mac1609_4 	SlotsBackoff 	0
scalar MyScenario.node[63].nic.mac1609_4 	NumInternalContention 	0
scalar MyScenario.node[63].nic.mac1609_4 	totalBusyTime 	0.00116
scalar MyScenario.node[63].veinsmobility 	startTime 	1
scalar MyScenario.node[63].veinsmobility 	totalTime 	45
scalar MyScenario.node[63].veinsmobility 	stopTime 	47
scalar MyScenario.node[63].veinsmobility 	minSpeed 	2.4163684986066
scalar MyScenario.node[63].veinsmobility 	maxSpeed 	13.860336984927
scalar MyScenario.node[63].veinsmobility 	totalDistance 	475.3017247323
scalar MyScenario.node[63].veinsmobility 	totalCO2Emission 	158.83008453088
scalar MyScenario.node[271].appl 	generatedWSMs 	1
scalar MyScenario.node[271].appl 	receivedWSMs 	12
scalar MyScenario.node[271].appl 	generatedBSMs 	0
scalar MyScenario.node[271].appl 	receivedBSMs 	0
scalar MyScenario.node[271].appl 	generatedWSAs 	0
scalar MyScenario.node[271].appl 	receivedWSAs 	0
scalar MyScenario.node[271].nic.phy80211p 	busyTime 	0.00028472727272727
scalar MyScenario.node[271].nic.mac1609_4 	ReceivedUnicastPackets 	0
scalar MyScenario.node[271].nic.mac1609_4 	ReceivedBroadcasts 	12
scalar MyScenario.node[271].nic.mac1609_4 	SentPackets 	1
scalar MyScenario.node[271].nic.mac1609_4 	SNIRLostPackets 	42
scalar MyScenario.node[271].nic.mac1609_4 	RXTXLostPackets 	9
scalar MyScenario.node[271].nic.mac1609_4 	TotalLostPackets 	51
scalar MyScenario.node[271].nic.mac1609_4 	DroppedPacketsInMac 	0
scalar MyScenario.node[271].nic.mac1609_4 	TooLittleTime 	0
scalar MyScenario.node[271].nic.mac1609_4 	TimesIntoBackoff 	1
scalar MyScenario.node[271].nic.mac1609_4 	SlotsBackoff 	2
scalar MyScenario.node[271].nic.mac1609_4 	NumInternalContention 	0
scalar MyScenario.node[271].nic.mac1609_4 	totalBusyTime 	0.005105061957
scalar MyScenario.node[271].veinsmobility 	startTime 	4
scalar MyScenario.node[271].veinsmobility 	totalTime 	43
scalar MyScenario.node[271].veinsmobility 	stopTime 	48
scalar MyScenario.node[271].veinsmobility 	minSpeed 	0.00015638140760736
scalar MyScenario.node[271].veinsmobility 	maxSpeed 	13.770430261991
scalar MyScenario.node[271].veinsmobility 	totalDistance 	270.70897130104
scalar MyScenario.node[271].veinsmobility 	totalCO2Emission 	112.36196717659
scalar MyScenario.node[198].appl 	generatedWSMs 	1
scalar MyScenario.node[198].appl 	receivedWSMs 	2
scalar MyScenario.node[198].appl 	generatedBSMs 	0
scalar MyScenario.node[198].appl 	receivedBSMs 	0
scalar MyScenario.node[198].appl 	generatedWSAs 	0
scalar MyScenario.node[198].appl 	receivedWSAs 	0
scalar MyScenario.node[198].nic.phy80211p 	busyTime 	0.00019509090909091
scalar MyScenario.node[198].nic.mac1609_4 	ReceivedUnicastPackets 	0
scalar MyScenario.node[198].nic.mac1609_4 	ReceivedBroadcasts 	2
scalar MyScenario.node[198].nic.mac1609_4 	SentPackets 	1
scalar MyScenario.node[198].nic.mac1609_4 	SNIRLostPackets 	35
scalar MyScenario.node[198].nic.mac1609_4 	RXTXLostPackets 	3
scalar MyScenario.node[198].nic.mac1609_4 	TotalLostPackets 	38
scalar MyScenario.node[198].nic.mac1609_4 	DroppedPacketsInMac 	0
scalar MyScenario.node[198].nic.mac1609_4 	TooLittleTime 	0
scalar MyScenario.node[198].nic.mac1609_4 	TimesIntoBackoff 	1
scalar MyScenario.node[198].nic.mac1609_4 	SlotsBackoff 	2
scalar MyScenario.node[198].nic.mac1609_4 	NumInternalContention 	0
scalar MyScenario.node[198].nic.mac1609_4 	totalBusyTime 	0.0016251363
scalar MyScenario.node[198].veinsmobility 	startTime 	4
scalar MyScenario.node[198].veinsmobility 	totalTime 	43
scalar MyScenario.node[198].veinsmobility 	stopTime 	48
scalar MyScenario.node[198].veinsmobility 	minSpeed 	1.988253534058
scalar MyScenario.node[198].veinsmobility 	maxSpeed 	13.722990215709
scalar MyScenario.node[198].veinsmobility 	totalDistance 	476.06084245201
scalar MyScenario.node[198].veinsmobility 	totalCO2Emission 	129.56754711577
scalar MyScenario.node[105].appl 	generatedWSMs 	1
scalar MyScenario.node[105].appl 	receivedWSMs 	4
scalar MyScenario.node[105].appl 	generatedBSMs 	0
scalar MyScenario.node[105].appl 	receivedBSMs 	0
scalar MyScenario.node[105].appl 	generatedWSAs 	0
scalar MyScenario.node[105].appl 	receivedWSAs 	0
scalar MyScenario.node[105].nic.phy80211p 	busyTime 	0.000174
scalar MyScenario.node[105].nic.mac1609_4 	ReceivedUnicastPackets 	0
scalar MyScenario.node[105].nic.mac1609_4 	ReceivedBroadcasts 	4
scalar MyScenario.node[105].nic.mac1609_4 	SentPackets 	1
scalar MyScenario.node[105].nic.mac1609_4 	SNIRLostPackets 	32
scalar MyScenario.node[105].nic.mac1609_4 	RXTXLostPackets 	4
scalar MyScenario.node[105].nic.mac1609_4 	TotalLostPackets 	36
scalar MyScenario.node[105].nic.mac1609_4 	DroppedPacketsInMac 	0
scalar MyScenario.node[105].nic.mac1609_4 	TooLittleTime 	0
scalar MyScenario.node[105].nic.mac1609_4 	TimesIntoBackoff 	1
scalar MyScenario.node[105].nic.mac1609_4 	SlotsBackoff 	2
scalar MyScenario.node[105].nic.mac1609_4 	NumInternalContention 	0
scalar MyScenario.node[105].nic.mac1609_4 	totalBusyTime 	0.002321059105
scalar MyScenario.node[105].veinsmobility 	startTime 	1
scalar MyScenario.node[105].veinsmobility 	totalTime 	47
scalar MyScenario.node[105].veinsmobility 	stopTime 	49
scalar MyScenario.node[105].veinsmobility 	minSpeed 	3.0129770544211e-07
scalar MyScenario.node[105].veinsmobility 	maxSpeed 	13.779653167538
scalar MyScenario.node[105].veinsmobility 	totalDistance 	382.35494526836
scalar MyScenario.node[105].veinsmobility 	totalCO2Emission 	145.46356471161
scalar MyScenario.node[123].appl 	generatedWSMs 	1
scalar MyScenario.node[123].appl 	receivedWSMs 	1
scalar MyScenario.node[123].appl 	generatedBSMs 	0
scalar MyScenario.node[123].appl 	receivedBSMs 	0
scalar MyScenario.node[123].appl 	generatedWSAs 	0
scalar MyScenario.node[123].appl 	receivedWSAs 	0
scalar MyScenario.node[123].nic.phy80211p 	busyTime 	6.6285714285714e-05
scalar MyScenario.node[123].nic.mac1609_4 	ReceivedUnicastPackets 	0
scalar MyScenario.node[123].nic.mac1609_4 	ReceivedBroadcasts 	1
scalar MyScenario.node[123].nic.mac1609_4 	SentPackets 	1
scalar MyScenario.node[123].nic.mac1609_4 	SNIRLostPackets 	13
scalar MyScenario.node[123].nic.mac1609_4 	RXTXLostPackets 	9
scalar MyScenario.node[123].nic.mac1609_4 	TotalLostPackets 	22
scalar MyScenario.node[123].nic.mac1609_4 	DroppedPacketsInMac 	0
scalar MyScenario.node[123].nic.mac1609_4 	TooLittleTime 	0
scalar MyScenario.node[123].nic.mac1609_4 	TimesIntoBackoff 	1
scalar MyScenario.node[123].nic.mac1609_4 	SlotsBackoff 	2
scalar MyScenario.node[123].nic.mac1609_4 	NumInternalContention 	0
scalar MyScenario.node[123].nic.mac1609_4 	totalBusyTime 	0.000929102715
scalar MyScenario.node[123].veinsmobility 	startTime 	1
scalar MyScenario.node[123].veinsmobility 	totalTime 	48
scalar MyScenario.node[123].veinsmobility 	stopTime 	50
scalar MyScenario.node[123].veinsmobility 	minSpeed 	1.8335435747402
scalar MyScenario.node[123].veinsmobility 	maxSpeed 	13.887616561237
scalar MyScenario.node[123].veinsmobility 	totalDistance 	564.57536579212
scalar MyScenario.node[123].veinsmobility 	totalCO2Emission 	144.42746669874
scalar MyScenario.node[164].appl 	generatedWSMs 	1
scalar MyScenario.node[164].appl 	receivedWSMs 	10
scalar MyScenario.node[164].appl 	generatedBSMs 	0
scalar MyScenario.node[164].appl 	receivedBSMs 	0
scalar MyScenario.node[164].appl 	generatedWSAs 	0
scalar MyScenario.node[164].appl 	receivedWSAs 	0
scalar MyScenario.node[164].nic.phy80211p 	busyTime 	0.0002225306122449
scalar MyScenario.node[164].nic.mac1609_4 	ReceivedUnicastPackets 	0
scalar MyScenario.node[164].nic.mac1609_4 	ReceivedBroadcasts 	10
scalar MyScenario.node[164].nic.mac1609_4 	SentPackets 	1
scalar MyScenario.node[164].nic.mac1609_4 	SNIRLostPackets 	37
scalar MyScenario.node[164].nic.mac1609_4 	RXTXLostPackets 	14
scalar MyScenario.node[164].nic.mac1609_4 	TotalLostPackets 	51
scalar MyScenario.node[164].nic.mac1609_4 	DroppedPacketsInMac 	0
scalar MyScenario.node[164].nic.mac1609_4 	TooLittleTime 	0
scalar MyScenario.node[164].nic.mac1609_4 	TimesIntoBackoff 	1
scalar MyScenario.node[164].nic.mac1609_4 	SlotsBackoff 	1
scalar MyScenario.node[164].nic.mac1609_4 	NumInternalContention 	0
scalar MyScenario.node[164].nic.mac1609_4 	totalBusyTime 	0.004409185372
scalar MyScenario.node[164].veinsmobility 	startTime 	1
scalar MyScenario.node[164].veinsmobility 	totalTime 	48
scalar MyScenario.node[164].veinsmobility 	stopTime 	50
scalar MyScenario.node[164].veinsmobility 	minSpeed 	0.00077521306642523
scalar MyScenario.node[164].veinsmobility 	maxSpeed 	13.808864565217
scalar MyScenario.node[164].veinsmobility 	totalDistance 	375.39029728645
scalar MyScenario.node[164].veinsmobility 	totalCO2Emission 	144.74731745971
scalar MyScenario.node[298].appl 	generatedWSMs 	0
scalar MyScenario.node[298].appl 	receivedWSMs 	0
scalar MyScenario.node[298].appl 	generatedBSMs 	0
scalar MyScenario.node[298].appl 	receivedBSMs 	0
scalar MyScenario.node[298].appl 	generatedWSAs 	0
scalar MyScenario.node[298].appl 	receivedWSAs 	0
scalar MyScenario.node[298].nic.phy80211p 	busyTime 	3.5692307692308e-05
scalar MyScenario.node[298].nic.mac1609_4 	ReceivedUnicastPackets 	0
scalar MyScenario.node[298].nic.mac1609_4 	ReceivedBroadcasts 	0
scalar MyScenario.node[298].nic.mac1609_4 	SentPackets 	0
scalar MyScenario.node[298].nic.mac1609_4 	SNIRLostPackets 	6
scalar MyScenario.node[298].nic.mac1609_4 	RXTXLostPackets 	0
scalar MyScenario.node[298].nic.mac1609_4 	TotalLostPackets 	6
scalar MyScenario.node[298].nic.mac1609_4 	DroppedPacketsInMac 	0
scalar MyScenario.node[298].nic.mac1609_4 	TooLittleTime 	0
scalar MyScenario.node[298].nic.mac1609_4 	TimesIntoBackoff 	0
scalar MyScenario.node[298].nic.mac1609_4 	SlotsBackoff 	0
scalar MyScenario.node[298].nic.mac1609_4 	NumInternalContention 	0
scalar MyScenario.node[298].nic.mac1609_4 	totalBusyTime 	0.000928
scalar MyScenario.node[298].veinsmobility 	startTime 	11
scalar MyScenario.node[298].veinsmobility 	totalTime 	38
scalar MyScenario.node[298].veinsmobility 	stopTime 	50
scalar MyScenario.node[298].veinsmobility 	minSpeed 	5.7777844501999
scalar MyScenario.node[298].veinsmobility 	maxSpeed 	13.898772690468
scalar MyScenario.node[298].veinsmobility 	totalDistance 	462.95820282875
scalar MyScenario.node[298].veinsmobility 	totalCO2Emission 	108.89370240461
scalar MyScenario.node[85].appl 	generatedWSMs 	0
scalar MyScenario.node[85].appl 	receivedWSMs 	0
scalar MyScenario.node[85].appl 	generatedBSMs 	0
scalar MyScenario.node[85].appl 	receivedBSMs 	0
scalar MyScenario.node[85].appl 	generatedWSAs 	0
scalar MyScenario.node[85].appl 	receivedWSAs 	0
scalar MyScenario.node[85].nic.phy80211p 	busyTime 	4.2612244897959e-05
scalar MyScenario.node[85].nic.mac1609_4 	ReceivedUnicastPackets 	0
scalar MyScenario.node[85].nic.mac1609_4 	ReceivedBroadcasts 	0
scalar MyScenario.node[85].nic.mac1609_4 	SentPackets 	0
scalar MyScenario.node[85].nic.mac1609_4 	SNIRLostPackets 	9
scalar MyScenario.node[85].nic.mac1609_4 	RXTXLostPackets 	0
scalar MyScenario.node[85].nic.mac1609_4 	TotalLostPackets 	9
scalar MyScenario.node[85].nic.mac1609_4 	DroppedPacketsInMac 	0
scalar MyScenario.node[85].nic.mac1609_4 	TooLittleTime 	0
scalar MyScenario.node[85].nic.mac1609_4 	TimesIntoBackoff 	0
scalar MyScenario.node[85].nic.mac1609_4 	SlotsBackoff 	0
scalar MyScenario.node[85].nic.mac1609_4 	NumInternalContention 	0
scalar MyScenario.node[85].nic.mac1609_4 	totalBusyTime 	0.000696
scalar MyScenario.node[85].veinsmobility 	startTime 	1
scalar MyScenario.node[85].veinsmobility 	totalTime 	48
scalar MyScenario.node[85].veinsmobility 	stopTime 	50
scalar MyScenario.node[85].veinsmobility 	minSpeed 	2.2947631863412
scalar MyScenario.node[85].veinsmobility 	maxSpeed 	13.898894693144
scalar MyScenario.node[85].veinsmobility 	totalDistance 	567.27014259995
scalar MyScenario.node[85].veinsmobility 	totalCO2Emission 	143.35694354128
scalar MyScenario.node[50].appl 	generatedWSMs 	1
scalar MyScenario.node[50].appl 	receivedWSMs 	6
scalar MyScenario.node[50].appl 	generatedBSMs 	0
scalar MyScenario.node[50].appl 	receivedBSMs 	0
scalar MyScenario.node[50].appl 	generatedWSAs 	0
scalar MyScenario.node[50].appl 	receivedWSAs 	0
scalar MyScenario.node[50].nic.phy80211p 	busyTime 	0.00012783673469388
scalar MyScenario.node[50].nic.mac1609_4 	ReceivedUnicastPackets 	0
scalar MyScenario.node[50].nic.mac1609_4 	ReceivedBroadcasts 	6
scalar MyScenario.node[50].nic.mac1609_4 	SentPackets 	1
scalar MyScenario.node[50].nic.mac1609_4 	SNIRLostPackets 	21
scalar MyScenario.node[50].nic.mac1609_4 	RXTXLostPackets 	21
scalar MyScenario.node[50].nic.mac1609_4 	TotalLostPackets 	42
scalar MyScenario.node[50].nic.mac1609_4 	DroppedPacketsInMac 	0
scalar MyScenario.node[50].nic.mac1609_4 	TooLittleTime 	0
scalar MyScenario.node[50].nic.mac1609_4 	TimesIntoBackoff 	1
scalar MyScenario.node[50].nic.mac1609_4 	SlotsBackoff 	2
scalar MyScenario.node[50].nic.mac1609_4 	NumInternalContention 	0
scalar MyScenario.node[50].nic.mac1609_4 	totalBusyTime 	0.002785
scalar MyScenario.node[50].veinsmobility 	startTime 	1
scalar MyScenario.node[50].veinsmobility 	totalTime 	48
scalar MyScenario.node[50].veinsmobility 	stopTime 	50
scalar MyScenario.node[50].veinsmobility 	minSpeed 	2.4563789771171
scalar MyScenario.node[50].veinsmobility 	maxSpeed 	13.868181602424
scalar MyScenario.node[50].veinsmobility 	totalDistance 	584.80553795948
scalar MyScenario.node[50].veinsmobility 	totalCO2Emission 	137.73968800495
scalar MyScenario.node[192].appl 	generatedWSMs 	0
scalar MyScenario.node[192].appl 	receivedWSMs 	0
scalar MyScenario.node[192].appl 	generatedBSMs 	0
scalar MyScenario.node[192].appl 	receivedBSMs 	0
scalar MyScenario.node[192].appl 	generatedWSAs 	0
scalar MyScenario.node[192].appl 	receivedWSAs 	0
scalar MyScenario.node[192].nic.phy80211p 	busyTime 	0
scalar MyScenario.node[192].nic.mac1609_4 	ReceivedUnicastPackets 	0
scalar MyScenario.node[192].nic.mac1609_4 	ReceivedBroadcasts 	0
scalar MyScenario.node[192].nic.mac1609_4 	SentPackets 	0
scalar MyScenario.node[192].nic.mac1609_4 	SNIRLostPackets 	0
scalar MyScenario.node[192].nic.mac1609_4 	RXTXLostPackets 	0
scalar MyScenario.node[192].nic.mac1609_4 	TotalLostPackets 	0
scalar MyScenario.node[192].nic.mac1609_4 	DroppedPacketsInMac 	0
scalar MyScenario.node[192].nic.mac1609_4 	TooLittleTime 	0
scalar MyScenario.node[192].nic.mac1609_4 	TimesIntoBackoff 	0
scalar MyScenario.node[192].nic.mac1609_4 	SlotsBackoff 	0
scalar MyScenario.node[192].nic.mac1609_4 	NumInternalContention 	0
scalar MyScenario.node[192].nic.mac1609_4 	totalBusyTime 	0
scalar MyScenario.node[192].veinsmobility 	startTime 	1
scalar MyScenario.node[192].veinsmobility 	totalTime 	49
scalar MyScenario.node[192].veinsmobility 	stopTime 	51
scalar MyScenario.node[192].veinsmobility 	minSpeed 	0.00061979577813274
scalar MyScenario.node[192].veinsmobility 	maxSpeed 	13.889951001876
scalar MyScenario.node[192].veinsmobility 	totalDistance 	483.18622669389
scalar MyScenario.node[192].veinsmobility 	totalCO2Emission 	136.58516343161
scalar MyScenario.node[207].appl 	generatedWSMs 	1
scalar MyScenario.node[207].appl 	receivedWSMs 	4
scalar MyScenario.node[207].appl 	generatedBSMs 	0
scalar MyScenario.node[207].appl 	receivedBSMs 	0
scalar MyScenario.node[207].appl 	generatedWSAs 	0
scalar MyScenario.node[207].appl 	receivedWSAs 	0
scalar MyScenario.node[207].nic.phy80211p 	busyTime 	7.5755102040816e-05
scalar MyScenario.node[207].nic.mac1609_4 	ReceivedUnicastPackets 	0
scalar MyScenario.node[207].nic.mac1609_4 	ReceivedBroadcasts 	4
scalar MyScenario.node[207].nic.mac1609_4 	SentPackets 	1
scalar MyScenario.node[207].nic.mac1609_4 	SNIRLostPackets 	12
scalar MyScenario.node[207].nic.mac1609_4 	RXTXLostPackets 	9
scalar MyScenario.node[207].nic.mac1609_4 	TotalLostPackets 	21
scalar MyScenario.node[207].nic.mac1609_4 	DroppedPacketsInMac 	0
scalar MyScenario.node[207].nic.mac1609_4 	TooLittleTime 	0
scalar MyScenario.node[207].nic.mac1609_4 	TimesIntoBackoff 	1
scalar MyScenario.node[207].nic.mac1609_4 	SlotsBackoff 	3
scalar MyScenario.node[207].nic.mac1609_4 	NumInternalContention 	0
scalar MyScenario.node[207].nic.mac1609_4 	totalBusyTime 	0.002553
scalar MyScenario.node[207].veinsmobility 	startTime 	4
scalar MyScenario.node[207].veinsmobility 	totalTime 	48
scalar MyScenario.node[207].veinsmobility 	stopTime 	53
scalar MyScenario.node[207].veinsmobility 	minSpeed 	1.0016460842288
scalar MyScenario.node[207].veinsmobility 	maxSpeed 	13.886674991157
scalar MyScenario.node[207].veinsmobility 	totalDistance 	562.74865755577
scalar MyScenario.node[207].veinsmobility 	totalCO2Emission 	145.71755364844
scalar MyScenario.node[212].appl 	generatedWSMs 	0
scalar MyScenario.node[212].appl 	receivedWSMs 	0
scalar MyScenario.node[212].appl 	generatedBSMs 	0
scalar MyScenario.node[212].appl 	receivedBSMs 	0
scalar MyScenario.node[212].appl 	generatedWSAs 	0
scalar MyScenario.node[212].appl 	receivedWSAs 	0
scalar MyScenario.node[212].nic.phy80211p 	busyTime 	0
scalar MyScenario.node[212].nic.mac1609_4 	ReceivedUnicastPackets 	0
scalar MyScenario.node[212].nic.mac1609_4 	ReceivedBroadcasts 	0
scalar MyScenario.node[212].nic.mac1609_4 	SentPackets 	0
scalar MyScenario.node[212].nic.mac1609_4 	SNIRLostPackets 	0
scalar MyScenario.node[212].nic.mac1609_4 	RXTXLostPackets 	0
scalar MyScenario.node[212].nic.mac1609_4 	TotalLostPackets 	0
scalar MyScenario.node[212].nic.mac1609_4 	DroppedPacketsInMac 	0
scalar MyScenario.node[212].nic.mac1609_4 	TooLittleTime 	0
scalar MyScenario.node[212].nic.mac1609_4 	TimesIntoBackoff 	0
scalar MyScenario.node[212].nic.mac1609_4 	SlotsBackoff 	0
scalar MyScenario.node[212].nic.mac1609_4 	NumInternalContention 	0
scalar MyScenario.node[212].nic.mac1609_4 	totalBusyTime 	0
scalar MyScenario.node[212].veinsmobility 	startTime 	4
scalar MyScenario.node[212].veinsmobility 	totalTime 	49
scalar MyScenario.node[212].veinsmobility 	stopTime 	54
scalar MyScenario.node[212].veinsmobility 	minSpeed 	2.1057361544343
scalar MyScenario.node[212].veinsmobility 	maxSpeed 	13.886352096545
scalar MyScenario.node[212].veinsmobility 	totalDistance 	575.74411334238
scalar MyScenario.node[212].veinsmobility 	totalCO2Emission 	142.15675995538
scalar MyScenario.node[232].appl 	generatedWSMs 	0
scalar MyScenario.node[232].appl 	receivedWSMs 	0
scalar MyScenario.node[232].appl 	generatedBSMs 	0
scalar MyScenario.node[232].appl 	receivedBSMs 	0
scalar MyScenario.node[232].appl 	generatedWSAs 	0
scalar MyScenario.node[232].appl 	receivedWSAs 	0
scalar MyScenario.node[232].nic.phy80211p 	busyTime 	4.64e-06
scalar MyScenario.node[232].nic.mac1609_4 	ReceivedUnicastPackets 	0
scalar MyScenario.node[232].nic.mac1609_4 	ReceivedBroadcasts 	0
scalar MyScenario.node[232].nic.mac1609_4 	SentPackets 	0
scalar MyScenario.node[232].nic.mac1609_4 	SNIRLostPackets 	1
scalar MyScenario.node[232].nic.mac1609_4 	RXTXLostPackets 	0
scalar MyScenario.node[232].nic.mac1609_4 	TotalLostPackets 	1
scalar MyScenario.node[232].nic.mac1609_4 	DroppedPacketsInMac 	0
scalar MyScenario.node[232].nic.mac1609_4 	TooLittleTime 	0
scalar MyScenario.node[232].nic.mac1609_4 	TimesIntoBackoff 	0
scalar MyScenario.node[232].nic.mac1609_4 	SlotsBackoff 	0
scalar MyScenario.node[232].nic.mac1609_4 	NumInternalContention 	0
scalar MyScenario.node[232].nic.mac1609_4 	totalBusyTime 	0.000232
scalar MyScenario.node[232].veinsmobility 	startTime 	4
scalar MyScenario.node[232].veinsmobility 	totalTime 	49
scalar MyScenario.node[232].veinsmobility 	stopTime 	54
scalar MyScenario.node[232].veinsmobility 	minSpeed 	2.0022523959866
scalar MyScenario.node[232].veinsmobility 	maxSpeed 	13.89376120558
scalar MyScenario.node[232].veinsmobility 	totalDistance 	569.44346120136
scalar MyScenario.node[232].veinsmobility 	totalCO2Emission 	159.19546901285
scalar MyScenario.node[252].appl 	generatedWSMs 	0
scalar MyScenario.node[252].appl 	receivedWSMs 	0
scalar MyScenario.node[252].appl 	generatedBSMs 	0
scalar MyScenario.node[252].appl 	receivedBSMs 	0
scalar MyScenario.node[252].appl 	generatedWSAs 	0
scalar MyScenario.node[252].appl 	receivedWSAs 	0
scalar MyScenario.node[252].nic.phy80211p 	busyTime 	0
[...]
scalar MyScenario.node[134].nic.mac1609_4 	DroppedPacketsInMac 	0
scalar MyScenario.node[134].nic.mac1609_4 	TooLittleTime 	0
scalar MyScenario.node[134].nic.mac1609_4 	TimesIntoBackoff 	1
scalar MyScenario.node[134].nic.mac1609_4 	SlotsBackoff 	0
scalar MyScenario.node[134].nic.mac1609_4 	NumInternalContention 	0
scalar MyScenario.node[134].nic.mac1609_4 	totalBusyTime 	0.002321173678
scalar MyScenario.node[134].veinsmobility 	startTime 	1
scalar MyScenario.node[134].veinsmobility 	totalTime 	151
scalar MyScenario.node[134].veinsmobility 	stopTime 	153
scalar MyScenario.node[134].veinsmobility 	minSpeed 	0.00011754713284388
scalar MyScenario.node[134].veinsmobility 	maxSpeed 	13.884468800505
scalar MyScenario.node[134].veinsmobility 	totalDistance 	1564.6757544379
scalar MyScenario.node[134].veinsmobility 	totalCO2Emission 	468.715939334
scalar MyScenario.node[19].appl 	generatedWSMs 	1
scalar MyScenario.node[19].appl 	receivedWSMs 	3
scalar MyScenario.node[19].appl 	generatedBSMs 	0
scalar MyScenario.node[19].appl 	receivedBSMs 	0
scalar MyScenario.node[19].appl 	generatedWSAs 	0
scalar MyScenario.node[19].appl 	receivedWSAs 	0
scalar MyScenario.node[19].nic.phy80211p 	busyTime 	3.5922580645161e-05
scalar MyScenario.node[19].nic.mac1609_4 	ReceivedUnicastPackets 	0
scalar MyScenario.node[19].nic.mac1609_4 	ReceivedBroadcasts 	3
scalar MyScenario.node[19].nic.mac1609_4 	SentPackets 	1
scalar MyScenario.node[19].nic.mac1609_4 	SNIRLostPackets 	21
scalar MyScenario.node[19].nic.mac1609_4 	RXTXLostPackets 	3
scalar MyScenario.node[19].nic.mac1609_4 	TotalLostPackets 	24
scalar MyScenario.node[19].nic.mac1609_4 	DroppedPacketsInMac 	0
scalar MyScenario.node[19].nic.mac1609_4 	TooLittleTime 	0
scalar MyScenario.node[19].nic.mac1609_4 	TimesIntoBackoff 	1
scalar MyScenario.node[19].nic.mac1609_4 	SlotsBackoff 	2
scalar MyScenario.node[19].nic.mac1609_4 	NumInternalContention 	0
scalar MyScenario.node[19].nic.mac1609_4 	totalBusyTime 	0.002553022478
scalar MyScenario.node[19].veinsmobility 	startTime 	1
scalar MyScenario.node[19].veinsmobility 	totalTime 	154
scalar MyScenario.node[19].veinsmobility 	stopTime 	156
scalar MyScenario.node[19].veinsmobility 	minSpeed 	2.5625234898434e-06
scalar MyScenario.node[19].veinsmobility 	maxSpeed 	13.896251880773
scalar MyScenario.node[19].veinsmobility 	totalDistance 	1369.7973865242
scalar MyScenario.node[19].veinsmobility 	totalCO2Emission 	436.09682954087
scalar MyScenario.node[189].appl 	generatedWSMs 	1
scalar MyScenario.node[189].appl 	receivedWSMs 	33
scalar MyScenario.node[189].appl 	generatedBSMs 	0
scalar MyScenario.node[189].appl 	receivedBSMs 	0
scalar MyScenario.node[189].appl 	generatedWSAs 	0
scalar MyScenario.node[189].appl 	receivedWSAs 	0
scalar MyScenario.node[189].nic.phy80211p 	busyTime 	7.4838709677419e-05
scalar MyScenario.node[189].nic.mac1609_4 	ReceivedUnicastPackets 	0
scalar MyScenario.node[189].nic.mac1609_4 	ReceivedBroadcasts 	33
scalar MyScenario.node[189].nic.mac1609_4 	SentPackets 	1
scalar MyScenario.node[189].nic.mac1609_4 	SNIRLostPackets 	17
scalar MyScenario.node[189].nic.mac1609_4 	RXTXLostPackets 	20
scalar MyScenario.node[189].nic.mac1609_4 	TotalLostPackets 	37
scalar MyScenario.node[189].nic.mac1609_4 	DroppedPacketsInMac 	0
scalar MyScenario.node[189].nic.mac1609_4 	TooLittleTime 	0
scalar MyScenario.node[189].nic.mac1609_4 	TimesIntoBackoff 	1
scalar MyScenario.node[189].nic.mac1609_4 	SlotsBackoff 	1
scalar MyScenario.node[189].nic.mac1609_4 	NumInternalContention 	0
scalar MyScenario.node[189].nic.mac1609_4 	totalBusyTime 	0.00974516311
scalar MyScenario.node[189].veinsmobility 	startTime 	1
scalar MyScenario.node[189].veinsmobility 	totalTime 	154
scalar MyScenario.node[189].veinsmobility 	stopTime 	156
scalar MyScenario.node[189].veinsmobility 	minSpeed 	2.7479527224951e-15
scalar MyScenario.node[189].veinsmobility 	maxSpeed 	13.833222597954
scalar MyScenario.node[189].veinsmobility 	totalDistance 	1176.8072453385
scalar MyScenario.node[189].veinsmobility 	totalCO2Emission 	448.30880828428
scalar MyScenario.node[251].appl 	generatedWSMs 	0
scalar MyScenario.node[251].appl 	receivedWSMs 	0
scalar MyScenario.node[251].appl 	generatedBSMs 	0
scalar MyScenario.node[251].appl 	receivedBSMs 	0
scalar MyScenario.node[251].appl 	generatedWSAs 	0
scalar MyScenario.node[251].appl 	receivedWSAs 	0
scalar MyScenario.node[251].nic.phy80211p 	busyTime 	4.5490196078431e-06
scalar MyScenario.node[251].nic.mac1609_4 	ReceivedUnicastPackets 	0
scalar MyScenario.node[251].nic.mac1609_4 	ReceivedBroadcasts 	0
scalar MyScenario.node[251].nic.mac1609_4 	SentPackets 	0
scalar MyScenario.node[251].nic.mac1609_4 	SNIRLostPackets 	3
scalar MyScenario.node[251].nic.mac1609_4 	RXTXLostPackets 	0
scalar MyScenario.node[251].nic.mac1609_4 	TotalLostPackets 	3
scalar MyScenario.node[251].nic.mac1609_4 	DroppedPacketsInMac 	0
scalar MyScenario.node[251].nic.mac1609_4 	TooLittleTime 	0
scalar MyScenario.node[251].nic.mac1609_4 	TimesIntoBackoff 	0
scalar MyScenario.node[251].nic.mac1609_4 	SlotsBackoff 	0
scalar MyScenario.node[251].nic.mac1609_4 	NumInternalContention 	0
scalar MyScenario.node[251].nic.mac1609_4 	totalBusyTime 	0.000464
scalar MyScenario.node[251].veinsmobility 	startTime 	4
scalar MyScenario.node[251].veinsmobility 	totalTime 	152
scalar MyScenario.node[251].veinsmobility 	stopTime 	157
scalar MyScenario.node[251].veinsmobility 	minSpeed 	3.0900157048173e-10
scalar MyScenario.node[251].veinsmobility 	maxSpeed 	13.889271676634
scalar MyScenario.node[251].veinsmobility 	totalDistance 	1279.228331408
scalar MyScenario.node[251].veinsmobility 	totalCO2Emission 	429.05629252104
scalar MyScenario.node[79].appl 	generatedWSMs 	1
scalar MyScenario.node[79].appl 	receivedWSMs 	12
scalar MyScenario.node[79].appl 	generatedBSMs 	0
scalar MyScenario.node[79].appl 	receivedBSMs 	0
scalar MyScenario.node[79].appl 	generatedWSAs 	0
scalar MyScenario.node[79].appl 	receivedWSAs 	0
scalar MyScenario.node[79].nic.phy80211p 	busyTime 	3.3987261146497e-05
scalar MyScenario.node[79].nic.mac1609_4 	ReceivedUnicastPackets 	0
scalar MyScenario.node[79].nic.mac1609_4 	ReceivedBroadcasts 	12
scalar MyScenario.node[79].nic.mac1609_4 	SentPackets 	1
scalar MyScenario.node[79].nic.mac1609_4 	SNIRLostPackets 	11
scalar MyScenario.node[79].nic.mac1609_4 	RXTXLostPackets 	7
scalar MyScenario.node[79].nic.mac1609_4 	TotalLostPackets 	18
scalar MyScenario.node[79].nic.mac1609_4 	DroppedPacketsInMac 	0
scalar MyScenario.node[79].nic.mac1609_4 	TooLittleTime 	0
scalar MyScenario.node[79].nic.mac1609_4 	TimesIntoBackoff 	1
scalar MyScenario.node[79].nic.mac1609_4 	SlotsBackoff 	2
scalar MyScenario.node[79].nic.mac1609_4 	NumInternalContention 	0
scalar MyScenario.node[79].nic.mac1609_4 	totalBusyTime 	0.003713070552
scalar MyScenario.node[79].veinsmobility 	startTime 	1
scalar MyScenario.node[79].veinsmobility 	totalTime 	156
scalar MyScenario.node[79].veinsmobility 	stopTime 	158
scalar MyScenario.node[79].veinsmobility 	minSpeed 	5.5617137644339e-09
scalar MyScenario.node[79].veinsmobility 	maxSpeed 	13.895922044502
scalar MyScenario.node[79].veinsmobility 	totalDistance 	1169.546962723
scalar MyScenario.node[79].veinsmobility 	totalCO2Emission 	405.62016439286
scalar MyScenario.node[82].appl 	generatedWSMs 	1
scalar MyScenario.node[82].appl 	receivedWSMs 	29
scalar MyScenario.node[82].appl 	generatedBSMs 	0
scalar MyScenario.node[82].appl 	receivedBSMs 	0
scalar MyScenario.node[82].appl 	generatedWSAs 	0
scalar MyScenario.node[82].appl 	receivedWSAs 	0
scalar MyScenario.node[82].nic.phy80211p 	busyTime 	0.00013447133757962
scalar MyScenario.node[82].nic.mac1609_4 	ReceivedUnicastPackets 	0
scalar MyScenario.node[82].nic.mac1609_4 	ReceivedBroadcasts 	29
scalar MyScenario.node[82].nic.mac1609_4 	SentPackets 	1
scalar MyScenario.node[82].nic.mac1609_4 	SNIRLostPackets 	62
scalar MyScenario.node[82].nic.mac1609_4 	RXTXLostPackets 	7
scalar MyScenario.node[82].nic.mac1609_4 	TotalLostPackets 	69
scalar MyScenario.node[82].nic.mac1609_4 	DroppedPacketsInMac 	0
scalar MyScenario.node[82].nic.mac1609_4 	TooLittleTime 	0
scalar MyScenario.node[82].nic.mac1609_4 	TimesIntoBackoff 	1
scalar MyScenario.node[82].nic.mac1609_4 	SlotsBackoff 	0
scalar MyScenario.node[82].nic.mac1609_4 	NumInternalContention 	0
scalar MyScenario.node[82].nic.mac1609_4 	totalBusyTime 	0.009745162593
scalar MyScenario.node[82].veinsmobility 	startTime 	1
scalar MyScenario.node[82].veinsmobility 	totalTime 	156
scalar MyScenario.node[82].veinsmobility 	stopTime 	158
scalar MyScenario.node[82].veinsmobility 	minSpeed 	0
scalar MyScenario.node[82].veinsmobility 	maxSpeed 	13.861364081432
scalar MyScenario.node[82].veinsmobility 	totalDistance 	1269.387096158
scalar MyScenario.node[82].veinsmobility 	totalCO2Emission 	415.80607802578
scalar MyScenario.node[40].appl 	generatedWSMs 	1
scalar MyScenario.node[40].appl 	receivedWSMs 	31
scalar MyScenario.node[40].appl 	generatedBSMs 	0
scalar MyScenario.node[40].appl 	receivedBSMs 	0
scalar MyScenario.node[40].appl 	generatedWSAs 	0
scalar MyScenario.node[40].appl 	receivedWSAs 	0
scalar MyScenario.node[40].nic.phy80211p 	busyTime 	0.00010505660377358
scalar MyScenario.node[40].nic.mac1609_4 	ReceivedUnicastPackets 	0
scalar MyScenario.node[40].nic.mac1609_4 	ReceivedBroadcasts 	31
scalar MyScenario.node[40].nic.mac1609_4 	SentPackets 	1
scalar MyScenario.node[40].nic.mac1609_4 	SNIRLostPackets 	41
scalar MyScenario.node[40].nic.mac1609_4 	RXTXLostPackets 	7
scalar MyScenario.node[40].nic.mac1609_4 	TotalLostPackets 	48
scalar MyScenario.node[40].nic.mac1609_4 	DroppedPacketsInMac 	0
scalar MyScenario.node[40].nic.mac1609_4 	TooLittleTime 	0
scalar MyScenario.node[40].nic.mac1609_4 	TimesIntoBackoff 	1
scalar MyScenario.node[40].nic.mac1609_4 	SlotsBackoff 	1
scalar MyScenario.node[40].nic.mac1609_4 	NumInternalContention 	0
scalar MyScenario.node[40].nic.mac1609_4 	totalBusyTime 	0.009049
scalar MyScenario.node[40].veinsmobility 	startTime 	1
scalar MyScenario.node[40].veinsmobility 	totalTime 	158
scalar MyScenario.node[40].veinsmobility 	stopTime 	160
scalar MyScenario.node[40].veinsmobility 	minSpeed 	1.5972514026295e-11
scalar MyScenario.node[40].veinsmobility 	maxSpeed 	13.889768918464
scalar MyScenario.node[40].veinsmobility 	totalDistance 	972.14390515489
scalar MyScenario.node[40].veinsmobility 	totalCO2Emission 	427.46592762516
scalar MyScenario.node[244].appl 	generatedWSMs 	1
scalar MyScenario.node[244].appl 	receivedWSMs 	13
scalar MyScenario.node[244].appl 	generatedBSMs 	0
scalar MyScenario.node[244].appl 	receivedBSMs 	0
scalar MyScenario.node[244].appl 	generatedWSAs 	0
scalar MyScenario.node[244].appl 	receivedWSAs 	0
scalar MyScenario.node[244].nic.phy80211p 	busyTime 	5.8e-05
scalar MyScenario.node[244].nic.mac1609_4 	ReceivedUnicastPackets 	0
scalar MyScenario.node[244].nic.mac1609_4 	ReceivedBroadcasts 	13
scalar MyScenario.node[244].nic.mac1609_4 	SentPackets 	1
scalar MyScenario.node[244].nic.mac1609_4 	SNIRLostPackets 	26
scalar MyScenario.node[244].nic.mac1609_4 	RXTXLostPackets 	15
scalar MyScenario.node[244].nic.mac1609_4 	TotalLostPackets 	41
scalar MyScenario.node[244].nic.mac1609_4 	DroppedPacketsInMac 	0
scalar MyScenario.node[244].nic.mac1609_4 	TooLittleTime 	0
scalar MyScenario.node[244].nic.mac1609_4 	TimesIntoBackoff 	1
scalar MyScenario.node[244].nic.mac1609_4 	SlotsBackoff 	3
scalar MyScenario.node[244].nic.mac1609_4 	NumInternalContention 	0
scalar MyScenario.node[244].nic.mac1609_4 	totalBusyTime 	0.004641053442
scalar MyScenario.node[244].veinsmobility 	startTime 	4
scalar MyScenario.node[244].veinsmobility 	totalTime 	155
scalar MyScenario.node[244].veinsmobility 	stopTime 	160
scalar MyScenario.node[244].veinsmobility 	minSpeed 	2.3062684664911e-12
scalar MyScenario.node[244].veinsmobility 	maxSpeed 	13.899865793576
scalar MyScenario.node[244].veinsmobility 	totalDistance 	1067.1798994664
scalar MyScenario.node[244].veinsmobility 	totalCO2Emission 	437.07744475176
scalar MyScenario.node[41].appl 	generatedWSMs 	1
scalar MyScenario.node[41].appl 	receivedWSMs 	33
scalar MyScenario.node[41].appl 	generatedBSMs 	0
scalar MyScenario.node[41].appl 	receivedBSMs 	0
scalar MyScenario.node[41].appl 	generatedWSAs 	0
scalar MyScenario.node[41].appl 	receivedWSAs 	0
scalar MyScenario.node[41].nic.phy80211p 	busyTime 	7.9219512195122e-05
scalar MyScenario.node[41].nic.mac1609_4 	ReceivedUnicastPackets 	0
scalar MyScenario.node[41].nic.mac1609_4 	ReceivedBroadcasts 	33
scalar MyScenario.node[41].nic.mac1609_4 	SentPackets 	1
scalar MyScenario.node[41].nic.mac1609_4 	SNIRLostPackets 	23
scalar MyScenario.node[41].nic.mac1609_4 	RXTXLostPackets 	11
scalar MyScenario.node[41].nic.mac1609_4 	TotalLostPackets 	34
scalar MyScenario.node[41].nic.mac1609_4 	DroppedPacketsInMac 	0
scalar MyScenario.node[41].nic.mac1609_4 	TooLittleTime 	0
scalar MyScenario.node[41].nic.mac1609_4 	TimesIntoBackoff 	1
scalar MyScenario.node[41].nic.mac1609_4 	SlotsBackoff 	1
scalar MyScenario.node[41].nic.mac1609_4 	NumInternalContention 	0
scalar MyScenario.node[41].nic.mac1609_4 	totalBusyTime 	0.009049057142
scalar MyScenario.node[41].veinsmobility 	startTime 	1
scalar MyScenario.node[41].veinsmobility 	totalTime 	163
scalar MyScenario.node[41].veinsmobility 	stopTime 	165
scalar MyScenario.node[41].veinsmobility 	minSpeed 	1.6472677525813e-06
scalar MyScenario.node[41].veinsmobility 	maxSpeed 	13.888752314355
scalar MyScenario.node[41].veinsmobility 	totalDistance 	1180.0673284204
scalar MyScenario.node[41].veinsmobility 	totalCO2Emission 	456.86576608015
scalar MyScenario.node[169].appl 	generatedWSMs 	1
scalar MyScenario.node[169].appl 	receivedWSMs 	12
scalar MyScenario.node[169].appl 	generatedBSMs 	0
scalar MyScenario.node[169].appl 	receivedBSMs 	0
scalar MyScenario.node[169].appl 	generatedWSAs 	0
scalar MyScenario.node[169].appl 	receivedWSAs 	0
scalar MyScenario.node[169].nic.phy80211p 	busyTime 	5.0011976047904e-05
scalar MyScenario.node[169].nic.mac1609_4 	ReceivedUnicastPackets 	0
scalar MyScenario.node[169].nic.mac1609_4 	ReceivedBroadcasts 	12
scalar MyScenario.node[169].nic.mac1609_4 	SentPackets 	1
scalar MyScenario.node[169].nic.mac1609_4 	SNIRLostPackets 	24
scalar MyScenario.node[169].nic.mac1609_4 	RXTXLostPackets 	7
scalar MyScenario.node[169].nic.mac1609_4 	TotalLostPackets 	31
scalar MyScenario.node[169].nic.mac1609_4 	DroppedPacketsInMac 	0
scalar MyScenario.node[169].nic.mac1609_4 	TooLittleTime 	0
scalar MyScenario.node[169].nic.mac1609_4 	TimesIntoBackoff 	1
scalar MyScenario.node[169].nic.mac1609_4 	SlotsBackoff 	2
scalar MyScenario.node[169].nic.mac1609_4 	NumInternalContention 	0
scalar MyScenario.node[169].nic.mac1609_4 	totalBusyTime 	0.003945261777
scalar MyScenario.node[169].veinsmobility 	startTime 	1
scalar MyScenario.node[169].veinsmobility 	totalTime 	166
scalar MyScenario.node[169].veinsmobility 	stopTime 	168
scalar MyScenario.node[169].veinsmobility 	minSpeed 	8.5407253773662e-08
scalar MyScenario.node[169].veinsmobility 	maxSpeed 	13.875245906459
scalar MyScenario.node[169].veinsmobility 	totalDistance 	1158.3295865652
scalar MyScenario.node[169].veinsmobility 	totalCO2Emission 	467.06807127408
scalar MyScenario.node[214].appl 	generatedWSMs 	1
scalar MyScenario.node[214].appl 	receivedWSMs 	12
scalar MyScenario.node[214].appl 	generatedBSMs 	0
scalar MyScenario.node[214].appl 	receivedBSMs 	0
scalar MyScenario.node[214].appl 	generatedWSAs 	0
scalar MyScenario.node[214].appl 	receivedWSAs 	0
scalar MyScenario.node[214].nic.phy80211p 	busyTime 	3.7285714285714e-05
scalar MyScenario.node[214].nic.mac1609_4 	ReceivedUnicastPackets 	0
scalar MyScenario.node[214].nic.mac1609_4 	ReceivedBroadcasts 	12
scalar MyScenario.node[214].nic.mac1609_4 	SentPackets 	1
scalar MyScenario.node[214].nic.mac1609_4 	SNIRLostPackets 	15
scalar MyScenario.node[214].nic.mac1609_4 	RXTXLostPackets 	7
scalar MyScenario.node[214].nic.mac1609_4 	TotalLostPackets 	22
scalar MyScenario.node[214].nic.mac1609_4 	DroppedPacketsInMac 	0
scalar MyScenario.node[214].nic.mac1609_4 	TooLittleTime 	0
scalar MyScenario.node[214].nic.mac1609_4 	TimesIntoBackoff 	1
scalar MyScenario.node[214].nic.mac1609_4 	SlotsBackoff 	3
scalar MyScenario.node[214].nic.mac1609_4 	NumInternalContention 	0
scalar MyScenario.node[214].nic.mac1609_4 	totalBusyTime 	0.003945161204
scalar MyScenario.node[214].veinsmobility 	startTime 	4
scalar MyScenario.node[214].veinsmobility 	totalTime 	167
scalar MyScenario.node[214].veinsmobility 	stopTime 	172
scalar MyScenario.node[214].veinsmobility 	minSpeed 	3.1562952795081e-09
scalar MyScenario.node[214].veinsmobility 	maxSpeed 	13.82607479787
scalar MyScenario.node[214].veinsmobility 	totalDistance 	1154.9762338139
scalar MyScenario.node[214].veinsmobility 	totalCO2Emission 	468.71105787754
scalar MyScenario.node[272].appl 	generatedWSMs 	1
scalar MyScenario.node[272].appl 	receivedWSMs 	14
scalar MyScenario.node[272].appl 	generatedBSMs 	0
scalar MyScenario.node[272].appl 	receivedBSMs 	0
scalar MyScenario.node[272].appl 	generatedWSAs 	0
scalar MyScenario.node[272].appl 	receivedWSAs 	0
scalar MyScenario.node[272].nic.phy80211p 	busyTime 	5.1255813953488e-05
scalar MyScenario.node[272].nic.mac1609_4 	ReceivedUnicastPackets 	0
scalar MyScenario.node[272].nic.mac1609_4 	ReceivedBroadcasts 	14
scalar MyScenario.node[272].nic.mac1609_4 	SentPackets 	1
scalar MyScenario.node[272].nic.mac1609_4 	SNIRLostPackets 	24
scalar MyScenario.node[272].nic.mac1609_4 	RXTXLostPackets 	15
scalar MyScenario.node[272].nic.mac1609_4 	TotalLostPackets 	39
scalar MyScenario.node[272].nic.mac1609_4 	DroppedPacketsInMac 	0
scalar MyScenario.node[272].nic.mac1609_4 	TooLittleTime 	0
scalar MyScenario.node[272].nic.mac1609_4 	TimesIntoBackoff 	1
scalar MyScenario.node[272].nic.mac1609_4 	SlotsBackoff 	0
scalar MyScenario.node[272].nic.mac1609_4 	NumInternalContention 	0
scalar MyScenario.node[272].nic.mac1609_4 	totalBusyTime 	0.004641027132
scalar MyScenario.node[272].veinsmobility 	startTime 	4
scalar MyScenario.node[272].veinsmobility 	totalTime 	171
scalar MyScenario.node[272].veinsmobility 	stopTime 	176
scalar MyScenario.node[272].veinsmobility 	minSpeed 	6.8088214267206e-09
scalar MyScenario.node[272].veinsmobility 	maxSpeed 	13.843397402228
scalar MyScenario.node[272].veinsmobility 	totalDistance 	1272.6991951176
scalar MyScenario.node[272].veinsmobility 	totalCO2Emission 	448.0512402553
scalar MyScenario.node[60].appl 	generatedWSMs 	1
scalar MyScenario.node[60].appl 	receivedWSMs 	12
scalar MyScenario.node[60].appl 	generatedBSMs 	0
scalar MyScenario.node[60].appl 	receivedBSMs 	0
scalar MyScenario.node[60].appl 	generatedWSAs 	0
scalar MyScenario.node[60].appl 	receivedWSAs 	0
scalar MyScenario.node[60].nic.phy80211p 	busyTime 	2.3727272727273e-05
scalar MyScenario.node[60].nic.mac1609_4 	ReceivedUnicastPackets 	0
scalar MyScenario.node[60].nic.mac1609_4 	ReceivedBroadcasts 	12
scalar MyScenario.node[60].nic.mac1609_4 	SentPackets 	1
scalar MyScenario.node[60].nic.mac1609_4 	SNIRLostPackets 	6
scalar MyScenario.node[60].nic.mac1609_4 	RXTXLostPackets 	7
scalar MyScenario.node[60].nic.mac1609_4 	TotalLostPackets 	13
scalar MyScenario.node[60].nic.mac1609_4 	DroppedPacketsInMac 	0
scalar MyScenario.node[60].nic.mac1609_4 	TooLittleTime 	0
scalar MyScenario.node[60].nic.mac1609_4 	TimesIntoBackoff 	1
scalar MyScenario.node[60].nic.mac1609_4 	SlotsBackoff 	0
scalar MyScenario.node[60].nic.mac1609_4 	NumInternalContention 	0
scalar MyScenario.node[60].nic.mac1609_4 	totalBusyTime 	0.003481126828
scalar MyScenario.node[60].veinsmobility 	startTime 	1
scalar MyScenario.node[60].veinsmobility 	totalTime 	175
scalar MyScenario.node[60].veinsmobility 	stopTime 	177
scalar MyScenario.node[60].veinsmobility 	minSpeed 	1.4353804163521e-05
scalar MyScenario.node[60].veinsmobility 	maxSpeed 	13.877155684261
scalar MyScenario.node[60].veinsmobility 	totalDistance 	1263.7201991262
scalar MyScenario.node[60].veinsmobility 	totalCO2Emission 	487.83430536756
