version 2
run General-4-20170829-17:38:47-8100
attr configname General
attr datetime 20170829-17:38:47
attr density 100
attr experiment General
attr inifile omnetpp.ini
attr iterationvars $density=100
attr iterationvars2 "$density=100, $repetition=4"
attr measurement $density=100
attr network com.liborio.pi.MyScenario
attr processid 8100
attr repetition 4
attr replication #4
attr resultdir results
attr runnumber 4
attr seedset 4
param **.coreDebug false
param **.debug false
param *.**.nic.mac1609_4.bitrate 6Mbps
param *.**.nic.mac1609_4.txPower 20mW
param *.**.nic.mac1609_4.useServiceChannel true
param *.**.nic.phy80211p.analogueModels "xmldoc(\"config.xml\")"
param *.**.nic.phy80211p.antenna "xmldoc(\"antenna.xml\", \"/root/Antenna[@id='monopole']\")"
param *.**.nic.phy80211p.decider "xmldoc(\"config.xml\")"
param *.**.nic.phy80211p.sensitivity -84.39dBm
param *.**.nic.phy80211p.thermalNoise -110dBm
param *.**.nic.phy80211p.usePropagationDelay true
param *.**.nic.phy80211p.useThermalNoise true
param *.annotations.draw true
param *.connectionManager.drawMaxIntfDist false
param *.connectionManager.maxInterfDist 2600m
param *.connectionManager.sendDirect true
param *.manager.autoShutdown true
param *.manager.host "\"localhost\""
param *.manager.launchConfig "xmldoc(string(${density = 100, 200, 300, 400})+\"_\"+ string(${repetition})+\".launchd.xml\")"
param *.manager.port 9999
param *.manager.updateInterval 1s
param *.node[*].appl.beaconInterval 1s
param *.node[*].appl.dataOnSch true
param *.node[*].appl.headerLength "80 bit"
param *.node[*].appl.isSource false
param *.node[*].appl.numMsgs 100
param *.node[*].appl.sendBeacons false
param *.node[*].appl.stopTrafficTime 130s
param *.node[*].appl.wsmInterval 3s
param *.node[*].applType "\"Flooding\""
param *.node[*].veinsmobility.x 0
param *.node[*].veinsmobility.y 0
param *.node[*].veinsmobility.z 1.895
param *.node[*].veinsmobilityType.debug true
param *.node[0].appl.isSource true
param *.playgroundSizeX 2500m
param *.playgroundSizeY 2500m
param *.playgroundSizeZ 50m

scalar . 	density 	100
scalar MyScenario.node[34].appl 	generatedWSMs 	0
scalar MyScenario.node[34].appl 	receivedWSMs 	0
scalar MyScenario.node[34].appl 	generatedBSMs 	0
scalar MyScenario.node[34].appl 	receivedBSMs 	0
scalar MyScenario.node[34].appl 	generatedWSAs 	0
scalar MyScenario.node[34].appl 	receivedWSAs 	0
scalar MyScenario.node[34].nic.phy80211p 	busyTime 	8.4363636363636e-05
scalar MyScenario.node[34].nic.mac1609_4 	ReceivedUnicastPackets 	0
scalar MyScenario.node[34].nic.mac1609_4 	ReceivedBroadcasts 	0
scalar MyScenario.node[34].nic.mac1609_4 	SentPackets 	0
scalar MyScenario.node[34].nic.mac1609_4 	SNIRLostPackets 	4
scalar MyScenario.node[34].nic.mac1609_4 	RXTXLostPackets 	0
scalar MyScenario.node[34].nic.mac1609_4 	TotalLostPackets 	4
scalar MyScenario.node[34].nic.mac1609_4 	DroppedPacketsInMac 	0
scalar MyScenario.node[34].nic.mac1609_4 	TooLittleTime 	0
scalar MyScenario.node[34].nic.mac1609_4 	TimesIntoBackoff 	0
scalar MyScenario.node[34].nic.mac1609_4 	SlotsBackoff 	0
scalar MyScenario.node[34].nic.mac1609_4 	NumInternalContention 	0
scalar MyScenario.node[34].nic.mac1609_4 	totalBusyTime 	0.000232
scalar MyScenario.node[34].veinsmobility 	startTime 	1
scalar MyScenario.node[34].veinsmobility 	totalTime 	10
scalar MyScenario.node[34].veinsmobility 	stopTime 	12
scalar MyScenario.node[34].veinsmobility 	minSpeed 	1.3428612101357
scalar MyScenario.node[34].veinsmobility 	maxSpeed 	13.578506700881
scalar MyScenario.node[34].veinsmobility 	totalDistance 	88.604306295644
scalar MyScenario.node[34].veinsmobility 	totalCO2Emission 	40.827961765536
scalar MyScenario.node[89].appl 	generatedWSMs 	0
scalar MyScenario.node[89].appl 	receivedWSMs 	0
scalar MyScenario.node[89].appl 	generatedBSMs 	0
scalar MyScenario.node[89].appl 	receivedBSMs 	0
scalar MyScenario.node[89].appl 	generatedWSAs 	0
scalar MyScenario.node[89].appl 	receivedWSAs 	0
scalar MyScenario.node[89].nic.phy80211p 	busyTime 	6.4444444444444e-05
scalar MyScenario.node[89].nic.mac1609_4 	ReceivedUnicastPackets 	0
scalar MyScenario.node[89].nic.mac1609_4 	ReceivedBroadcasts 	0
scalar MyScenario.node[89].nic.mac1609_4 	SentPackets 	0
scalar MyScenario.node[89].nic.mac1609_4 	SNIRLostPackets 	5
scalar MyScenario.node[89].nic.mac1609_4 	RXTXLostPackets 	0
scalar MyScenario.node[89].nic.mac1609_4 	TotalLostPackets 	5
scalar MyScenario.node[89].nic.mac1609_4 	DroppedPacketsInMac 	0
scalar MyScenario.node[89].nic.mac1609_4 	TooLittleTime 	0
scalar MyScenario.node[89].nic.mac1609_4 	TimesIntoBackoff 	0
scalar MyScenario.node[89].nic.mac1609_4 	SlotsBackoff 	0
scalar MyScenario.node[89].nic.mac1609_4 	NumInternalContention 	0
scalar MyScenario.node[89].nic.mac1609_4 	totalBusyTime 	0.000232
scalar MyScenario.node[89].veinsmobility 	startTime 	1
scalar MyScenario.node[89].veinsmobility 	totalTime 	17
scalar MyScenario.node[89].veinsmobility 	stopTime 	19
scalar MyScenario.node[89].veinsmobility 	minSpeed 	1.4291921088938
scalar MyScenario.node[89].veinsmobility 	maxSpeed 	13.759019361087
scalar MyScenario.node[89].veinsmobility 	totalDistance 	178.34755054794
scalar MyScenario.node[89].veinsmobility 	totalCO2Emission 	50.322698483704
scalar MyScenario.node[60].appl 	generatedWSMs 	0
scalar MyScenario.node[60].appl 	receivedWSMs 	0
scalar MyScenario.node[60].appl 	generatedBSMs 	0
scalar MyScenario.node[60].appl 	receivedBSMs 	0
scalar MyScenario.node[60].appl 	generatedWSAs 	0
scalar MyScenario.node[60].appl 	receivedWSAs 	0
scalar MyScenario.node[60].nic.phy80211p 	busyTime 	6.96e-05
scalar MyScenario.node[60].nic.mac1609_4 	ReceivedUnicastPackets 	0
scalar MyScenario.node[60].nic.mac1609_4 	ReceivedBroadcasts 	0
scalar MyScenario.node[60].nic.mac1609_4 	SentPackets 	0
scalar MyScenario.node[60].nic.mac1609_4 	SNIRLostPackets 	6
scalar MyScenario.node[60].nic.mac1609_4 	RXTXLostPackets 	0
scalar MyScenario.node[60].nic.mac1609_4 	TotalLostPackets 	6
scalar MyScenario.node[60].nic.mac1609_4 	DroppedPacketsInMac 	0
scalar MyScenario.node[60].nic.mac1609_4 	TooLittleTime 	0
scalar MyScenario.node[60].nic.mac1609_4 	TimesIntoBackoff 	0
scalar MyScenario.node[60].nic.mac1609_4 	SlotsBackoff 	0
scalar MyScenario.node[60].nic.mac1609_4 	NumInternalContention 	0
scalar MyScenario.node[60].nic.mac1609_4 	totalBusyTime 	0.000464
scalar MyScenario.node[60].veinsmobility 	startTime 	1
scalar MyScenario.node[60].veinsmobility 	totalTime 	19
scalar MyScenario.node[60].veinsmobility 	stopTime 	21
scalar MyScenario.node[60].veinsmobility 	minSpeed 	1.3308432088466
scalar MyScenario.node[60].veinsmobility 	maxSpeed 	13.647782408982
scalar MyScenario.node[60].veinsmobility 	totalDistance 	168.34084840568
scalar MyScenario.node[60].veinsmobility 	totalCO2Emission 	71.782182091971
scalar MyScenario.node[23].appl 	generatedWSMs 	0
scalar MyScenario.node[23].appl 	receivedWSMs 	0
scalar MyScenario.node[23].appl 	generatedBSMs 	0
scalar MyScenario.node[23].appl 	receivedBSMs 	0
scalar MyScenario.node[23].appl 	generatedWSAs 	0
scalar MyScenario.node[23].appl 	receivedWSAs 	0
scalar MyScenario.node[23].nic.phy80211p 	busyTime 	0
scalar MyScenario.node[23].nic.mac1609_4 	ReceivedUnicastPackets 	0
scalar MyScenario.node[23].nic.mac1609_4 	ReceivedBroadcasts 	0
scalar MyScenario.node[23].nic.mac1609_4 	SentPackets 	0
scalar MyScenario.node[23].nic.mac1609_4 	SNIRLostPackets 	0
scalar MyScenario.node[23].nic.mac1609_4 	RXTXLostPackets 	0
scalar MyScenario.node[23].nic.mac1609_4 	TotalLostPackets 	0
scalar MyScenario.node[23].nic.mac1609_4 	DroppedPacketsInMac 	0
scalar MyScenario.node[23].nic.mac1609_4 	TooLittleTime 	0
scalar MyScenario.node[23].nic.mac1609_4 	TimesIntoBackoff 	0
scalar MyScenario.node[23].nic.mac1609_4 	SlotsBackoff 	0
scalar MyScenario.node[23].nic.mac1609_4 	NumInternalContention 	0
scalar MyScenario.node[23].nic.mac1609_4 	totalBusyTime 	0
scalar MyScenario.node[23].veinsmobility 	startTime 	1
scalar MyScenario.node[23].veinsmobility 	totalTime 	25
scalar MyScenario.node[23].veinsmobility 	stopTime 	27
scalar MyScenario.node[23].veinsmobility 	minSpeed 	2.0840299953939
scalar MyScenario.node[23].veinsmobility 	maxSpeed 	13.839973749733
scalar MyScenario.node[23].veinsmobility 	totalDistance 	274.55751755636
scalar MyScenario.node[23].veinsmobility 	totalCO2Emission 	90.768912803873
scalar MyScenario.node[13].appl 	generatedWSMs 	1
scalar MyScenario.node[13].appl 	receivedWSMs 	4
scalar MyScenario.node[13].appl 	generatedBSMs 	0
scalar MyScenario.node[13].appl 	receivedBSMs 	0
scalar MyScenario.node[13].appl 	generatedWSAs 	0
scalar MyScenario.node[13].appl 	receivedWSAs 	0
scalar MyScenario.node[13].nic.phy80211p 	busyTime 	5.1555555555556e-05
scalar MyScenario.node[13].nic.mac1609_4 	ReceivedUnicastPackets 	0
scalar MyScenario.node[13].nic.mac1609_4 	ReceivedBroadcasts 	4
scalar MyScenario.node[13].nic.mac1609_4 	SentPackets 	1
scalar MyScenario.node[13].nic.mac1609_4 	SNIRLostPackets 	2
scalar MyScenario.node[13].nic.mac1609_4 	RXTXLostPackets 	0
scalar MyScenario.node[13].nic.mac1609_4 	TotalLostPackets 	2
scalar MyScenario.node[13].nic.mac1609_4 	DroppedPacketsInMac 	0
scalar MyScenario.node[13].nic.mac1609_4 	TooLittleTime 	0
scalar MyScenario.node[13].nic.mac1609_4 	TimesIntoBackoff 	1
scalar MyScenario.node[13].nic.mac1609_4 	SlotsBackoff 	1
scalar MyScenario.node[13].nic.mac1609_4 	NumInternalContention 	0
scalar MyScenario.node[13].nic.mac1609_4 	totalBusyTime 	0.001393
scalar MyScenario.node[13].veinsmobility 	startTime 	1
scalar MyScenario.node[13].veinsmobility 	totalTime 	26
scalar MyScenario.node[13].veinsmobility 	stopTime 	28
scalar MyScenario.node[13].veinsmobility 	minSpeed 	2.5482855293434
scalar MyScenario.node[13].veinsmobility 	maxSpeed 	13.817685217736
scalar MyScenario.node[13].veinsmobility 	totalDistance 	272.97774508292
scalar MyScenario.node[13].veinsmobility 	totalCO2Emission 	92.791719394236
scalar MyScenario.node[79].appl 	generatedWSMs 	0
scalar MyScenario.node[79].appl 	receivedWSMs 	0
scalar MyScenario.node[79].appl 	generatedBSMs 	0
scalar MyScenario.node[79].appl 	receivedBSMs 	0
scalar MyScenario.node[79].appl 	generatedWSAs 	0
scalar MyScenario.node[79].appl 	receivedWSAs 	0
scalar MyScenario.node[79].nic.phy80211p 	busyTime 	1.7185185185185e-05
scalar MyScenario.node[79].nic.mac1609_4 	ReceivedUnicastPackets 	0
scalar MyScenario.node[79].nic.mac1609_4 	ReceivedBroadcasts 	0
scalar MyScenario.node[79].nic.mac1609_4 	SentPackets 	0
scalar MyScenario.node[79].nic.mac1609_4 	SNIRLostPackets 	2
scalar MyScenario.node[79].nic.mac1609_4 	RXTXLostPackets 	0
scalar MyScenario.node[79].nic.mac1609_4 	TotalLostPackets 	2
scalar MyScenario.node[79].nic.mac1609_4 	DroppedPacketsInMac 	0
scalar MyScenario.node[79].nic.mac1609_4 	TooLittleTime 	0
scalar MyScenario.node[79].nic.mac1609_4 	TimesIntoBackoff 	0
scalar MyScenario.node[79].nic.mac1609_4 	SlotsBackoff 	0
scalar MyScenario.node[79].nic.mac1609_4 	NumInternalContention 	0
scalar MyScenario.node[79].nic.mac1609_4 	totalBusyTime 	0.000232
scalar MyScenario.node[79].veinsmobility 	startTime 	1
scalar MyScenario.node[79].veinsmobility 	totalTime 	26
scalar MyScenario.node[79].veinsmobility 	stopTime 	28
scalar MyScenario.node[79].veinsmobility 	minSpeed 	1.6929525283631
scalar MyScenario.node[79].veinsmobility 	maxSpeed 	13.81731239215
scalar MyScenario.node[79].veinsmobility 	totalDistance 	270.893733814
scalar MyScenario.node[79].veinsmobility 	totalCO2Emission 	93.194636406466
scalar MyScenario.node[44].appl 	generatedWSMs 	1
scalar MyScenario.node[44].appl 	receivedWSMs 	5
scalar MyScenario.node[44].appl 	generatedBSMs 	0
scalar MyScenario.node[44].appl 	receivedBSMs 	0
scalar MyScenario.node[44].appl 	generatedWSAs 	0
scalar MyScenario.node[44].appl 	receivedWSAs 	0
scalar MyScenario.node[44].nic.phy80211p 	busyTime 	3.5151515151515e-05
scalar MyScenario.node[44].nic.mac1609_4 	ReceivedUnicastPackets 	0
scalar MyScenario.node[44].nic.mac1609_4 	ReceivedBroadcasts 	5
scalar MyScenario.node[44].nic.mac1609_4 	SentPackets 	1
scalar MyScenario.node[44].nic.mac1609_4 	SNIRLostPackets 	0
scalar MyScenario.node[44].nic.mac1609_4 	RXTXLostPackets 	1
scalar MyScenario.node[44].nic.mac1609_4 	TotalLostPackets 	1
scalar MyScenario.node[44].nic.mac1609_4 	DroppedPacketsInMac 	0
scalar MyScenario.node[44].nic.mac1609_4 	TooLittleTime 	0
scalar MyScenario.node[44].nic.mac1609_4 	TimesIntoBackoff 	1
scalar MyScenario.node[44].nic.mac1609_4 	SlotsBackoff 	1
scalar MyScenario.node[44].nic.mac1609_4 	NumInternalContention 	0
scalar MyScenario.node[44].nic.mac1609_4 	totalBusyTime 	0.001393
scalar MyScenario.node[44].veinsmobility 	startTime 	1
scalar MyScenario.node[44].veinsmobility 	totalTime 	32
scalar MyScenario.node[44].veinsmobility 	stopTime 	34
scalar MyScenario.node[44].veinsmobility 	minSpeed 	1.8146284818649
scalar MyScenario.node[44].veinsmobility 	maxSpeed 	13.87330307602
scalar MyScenario.node[44].veinsmobility 	totalDistance 	369.36305715149
scalar MyScenario.node[44].veinsmobility 	totalCO2Emission 	99.31004445202
scalar MyScenario.node[88].appl 	generatedWSMs 	0
scalar MyScenario.node[88].appl 	receivedWSMs 	0
scalar MyScenario.node[88].appl 	generatedBSMs 	0
scalar MyScenario.node[88].appl 	receivedBSMs 	0
scalar MyScenario.node[88].appl 	generatedWSAs 	0
scalar MyScenario.node[88].appl 	receivedWSAs 	0
scalar MyScenario.node[88].nic.phy80211p 	busyTime 	0
scalar MyScenario.node[88].nic.mac1609_4 	ReceivedUnicastPackets 	0
scalar MyScenario.node[88].nic.mac1609_4 	ReceivedBroadcasts 	0
scalar MyScenario.node[88].nic.mac1609_4 	SentPackets 	0
scalar MyScenario.node[88].nic.mac1609_4 	SNIRLostPackets 	0
scalar MyScenario.node[88].nic.mac1609_4 	RXTXLostPackets 	0
scalar MyScenario.node[88].nic.mac1609_4 	TotalLostPackets 	0
scalar MyScenario.node[88].nic.mac1609_4 	DroppedPacketsInMac 	0
scalar MyScenario.node[88].nic.mac1609_4 	TooLittleTime 	0
scalar MyScenario.node[88].nic.mac1609_4 	TimesIntoBackoff 	0
scalar MyScenario.node[88].nic.mac1609_4 	SlotsBackoff 	0
scalar MyScenario.node[88].nic.mac1609_4 	NumInternalContention 	0
scalar MyScenario.node[88].nic.mac1609_4 	totalBusyTime 	0
scalar MyScenario.node[88].veinsmobility 	startTime 	1
scalar MyScenario.node[88].veinsmobility 	totalTime 	33
scalar MyScenario.node[88].veinsmobility 	stopTime 	35
scalar MyScenario.node[88].veinsmobility 	minSpeed 	1.7711066766176
scalar MyScenario.node[88].veinsmobility 	maxSpeed 	13.869850738556
scalar MyScenario.node[88].veinsmobility 	totalDistance 	375.79880672302
scalar MyScenario.node[88].veinsmobility 	totalCO2Emission 	101.09150991162
scalar MyScenario.node[38].appl 	generatedWSMs 	1
scalar MyScenario.node[38].appl 	receivedWSMs 	3
scalar MyScenario.node[38].appl 	generatedBSMs 	0
scalar MyScenario.node[38].appl 	receivedBSMs 	0
scalar MyScenario.node[38].appl 	generatedWSAs 	0
scalar MyScenario.node[38].appl 	receivedWSAs 	0
scalar MyScenario.node[38].nic.phy80211p 	busyTime 	1.9885714285714e-05
scalar MyScenario.node[38].nic.mac1609_4 	ReceivedUnicastPackets 	0
scalar MyScenario.node[38].nic.mac1609_4 	ReceivedBroadcasts 	3
scalar MyScenario.node[38].nic.mac1609_4 	SentPackets 	1
scalar MyScenario.node[38].nic.mac1609_4 	SNIRLostPackets 	0
scalar MyScenario.node[38].nic.mac1609_4 	RXTXLostPackets 	2
scalar MyScenario.node[38].nic.mac1609_4 	TotalLostPackets 	2
scalar MyScenario.node[38].nic.mac1609_4 	DroppedPacketsInMac 	0
scalar MyScenario.node[38].nic.mac1609_4 	TooLittleTime 	0
scalar MyScenario.node[38].nic.mac1609_4 	TimesIntoBackoff 	1
scalar MyScenario.node[38].nic.mac1609_4 	SlotsBackoff 	1
scalar MyScenario.node[38].nic.mac1609_4 	NumInternalContention 	0
scalar MyScenario.node[38].nic.mac1609_4 	totalBusyTime 	0.000929
scalar MyScenario.node[38].veinsmobility 	startTime 	1
scalar MyScenario.node[38].veinsmobility 	totalTime 	34
scalar MyScenario.node[38].veinsmobility 	stopTime 	36
scalar MyScenario.node[38].veinsmobility 	minSpeed 	2.3870050830068
scalar MyScenario.node[38].veinsmobility 	maxSpeed 	13.838814728102
scalar MyScenario.node[38].veinsmobility 	totalDistance 	377.88318764777
scalar MyScenario.node[38].veinsmobility 	totalCO2Emission 	119.3132029127
scalar MyScenario.node[19].appl 	generatedWSMs 	1
scalar MyScenario.node[19].appl 	receivedWSMs 	1
scalar MyScenario.node[19].appl 	generatedBSMs 	0
scalar MyScenario.node[19].appl 	receivedBSMs 	0
scalar MyScenario.node[19].appl 	generatedWSAs 	0
scalar MyScenario.node[19].appl 	receivedWSAs 	0
scalar MyScenario.node[19].nic.phy80211p 	busyTime 	1.2210526315789e-05
scalar MyScenario.node[19].nic.mac1609_4 	ReceivedUnicastPackets 	0
scalar MyScenario.node[19].nic.mac1609_4 	ReceivedBroadcasts 	1
scalar MyScenario.node[19].nic.mac1609_4 	SentPackets 	1
scalar MyScenario.node[19].nic.mac1609_4 	SNIRLostPackets 	1
scalar MyScenario.node[19].nic.mac1609_4 	RXTXLostPackets 	4
scalar MyScenario.node[19].nic.mac1609_4 	TotalLostPackets 	5
scalar MyScenario.node[19].nic.mac1609_4 	DroppedPacketsInMac 	0
scalar MyScenario.node[19].nic.mac1609_4 	TooLittleTime 	0
scalar MyScenario.node[19].nic.mac1609_4 	TimesIntoBackoff 	1
scalar MyScenario.node[19].nic.mac1609_4 	SlotsBackoff 	1
scalar MyScenario.node[19].nic.mac1609_4 	NumInternalContention 	0
scalar MyScenario.node[19].nic.mac1609_4 	totalBusyTime 	0.000697
scalar MyScenario.node[19].veinsmobility 	startTime 	1
scalar MyScenario.node[19].veinsmobility 	totalTime 	37
scalar MyScenario.node[19].veinsmobility 	stopTime 	39
scalar MyScenario.node[19].veinsmobility 	minSpeed 	0.55599279610151
scalar MyScenario.node[19].veinsmobility 	maxSpeed 	13.898712996556
scalar MyScenario.node[19].veinsmobility 	totalDistance 	379.9925430121
scalar MyScenario.node[19].veinsmobility 	totalCO2Emission 	128.8353873821
scalar MyScenario.node[31].appl 	generatedWSMs 	0
scalar MyScenario.node[31].appl 	receivedWSMs 	0
scalar MyScenario.node[31].appl 	generatedBSMs 	0
scalar MyScenario.node[31].appl 	receivedBSMs 	0
scalar MyScenario.node[31].appl 	generatedWSAs 	0
scalar MyScenario.node[31].appl 	receivedWSAs 	0
scalar MyScenario.node[31].nic.phy80211p 	busyTime 	0
scalar MyScenario.node[31].nic.mac1609_4 	ReceivedUnicastPackets 	0
scalar MyScenario.node[31].nic.mac1609_4 	ReceivedBroadcasts 	0
scalar MyScenario.node[31].nic.mac1609_4 	SentPackets 	0
scalar MyScenario.node[31].nic.mac1609_4 	SNIRLostPackets 	0
scalar MyScenario.node[31].nic.mac1609_4 	RXTXLostPackets 	0
scalar MyScenario.node[31].nic.mac1609_4 	TotalLostPackets 	0
scalar MyScenario.node[31].nic.mac1609_4 	DroppedPacketsInMac 	0
scalar MyScenario.node[31].nic.mac1609_4 	TooLittleTime 	0
scalar MyScenario.node[31].nic.mac1609_4 	TimesIntoBackoff 	0
scalar MyScenario.node[31].nic.mac1609_4 	SlotsBackoff 	0
scalar MyScenario.node[31].nic.mac1609_4 	NumInternalContention 	0
scalar MyScenario.node[31].nic.mac1609_4 	totalBusyTime 	0
scalar MyScenario.node[31].veinsmobility 	startTime 	1
scalar MyScenario.node[31].veinsmobility 	totalTime 	40
scalar MyScenario.node[31].veinsmobility 	stopTime 	42
scalar MyScenario.node[31].veinsmobility 	minSpeed 	2.189048915403
scalar MyScenario.node[31].veinsmobility 	maxSpeed 	13.862306762044
scalar MyScenario.node[31].veinsmobility 	totalDistance 	464.19297168151
scalar MyScenario.node[31].veinsmobility 	totalCO2Emission 	123.23133214769
scalar MyScenario.node[65].appl 	generatedWSMs 	0
scalar MyScenario.node[65].appl 	receivedWSMs 	0
scalar MyScenario.node[65].appl 	generatedBSMs 	0
scalar MyScenario.node[65].appl 	receivedBSMs 	0
scalar MyScenario.node[65].appl 	generatedWSAs 	0
scalar MyScenario.node[65].appl 	receivedWSAs 	0
scalar MyScenario.node[65].nic.phy80211p 	busyTime 	2.2634146341463e-05
scalar MyScenario.node[65].nic.mac1609_4 	ReceivedUnicastPackets 	0
scalar MyScenario.node[65].nic.mac1609_4 	ReceivedBroadcasts 	0
scalar MyScenario.node[65].nic.mac1609_4 	SentPackets 	0
scalar MyScenario.node[65].nic.mac1609_4 	SNIRLostPackets 	4
scalar MyScenario.node[65].nic.mac1609_4 	RXTXLostPackets 	0
scalar MyScenario.node[65].nic.mac1609_4 	TotalLostPackets 	4
scalar MyScenario.node[65].nic.mac1609_4 	DroppedPacketsInMac 	0
scalar MyScenario.node[65].nic.mac1609_4 	TooLittleTime 	0
scalar MyScenario.node[65].nic.mac1609_4 	TimesIntoBackoff 	0
scalar MyScenario.node[65].nic.mac1609_4 	SlotsBackoff 	0
scalar MyScenario.node[65].nic.mac1609_4 	NumInternalContention 	0
scalar MyScenario.node[65].nic.mac1609_4 	totalBusyTime 	0.000232
scalar MyScenario.node[65].veinsmobility 	startTime 	1
scalar MyScenario.node[65].veinsmobility 	totalTime 	40
scalar MyScenario.node[65].veinsmobility 	stopTime 	42
scalar MyScenario.node[65].veinsmobility 	minSpeed 	1.3811569395708
scalar MyScenario.node[65].veinsmobility 	maxSpeed 	13.827448504861
scalar MyScenario.node[65].veinsmobility 	totalDistance 	480.46889647804
scalar MyScenario.node[65].veinsmobility 	totalCO2Emission 	111.1153697346
scalar MyScenario.node[8].appl 	generatedWSMs 	0
scalar MyScenario.node[8].appl 	receivedWSMs 	0
scalar MyScenario.node[8].appl 	generatedBSMs 	0
scalar MyScenario.node[8].appl 	receivedBSMs 	0
scalar MyScenario.node[8].appl 	generatedWSAs 	0
scalar MyScenario.node[8].appl 	receivedWSAs 	0
scalar MyScenario.node[8].nic.phy80211p 	busyTime 	5.5238095238095e-06
scalar MyScenario.node[8].nic.mac1609_4 	ReceivedUnicastPackets 	0
scalar MyScenario.node[8].nic.mac1609_4 	ReceivedBroadcasts 	0
scalar MyScenario.node[8].nic.mac1609_4 	SentPackets 	0
scalar MyScenario.node[8].nic.mac1609_4 	SNIRLostPackets 	1
scalar MyScenario.node[8].nic.mac1609_4 	RXTXLostPackets 	0
scalar MyScenario.node[8].nic.mac1609_4 	TotalLostPackets 	1
scalar MyScenario.node[8].nic.mac1609_4 	DroppedPacketsInMac 	0
scalar MyScenario.node[8].nic.mac1609_4 	TooLittleTime 	0
scalar MyScenario.node[8].nic.mac1609_4 	TimesIntoBackoff 	0
scalar MyScenario.node[8].nic.mac1609_4 	SlotsBackoff 	0
scalar MyScenario.node[8].nic.mac1609_4 	NumInternalContention 	0
scalar MyScenario.node[8].nic.mac1609_4 	totalBusyTime 	0.000232
scalar MyScenario.node[8].veinsmobility 	startTime 	1
scalar MyScenario.node[8].veinsmobility 	totalTime 	41
scalar MyScenario.node[8].veinsmobility 	stopTime 	43
scalar MyScenario.node[8].veinsmobility 	minSpeed 	2.3100577231962
scalar MyScenario.node[8].veinsmobility 	maxSpeed 	13.858091938053
scalar MyScenario.node[8].veinsmobility 	totalDistance 	469.34171685712
scalar MyScenario.node[8].veinsmobility 	totalCO2Emission 	130.32710440822
scalar MyScenario.node[3].appl 	generatedWSMs 	0
scalar MyScenario.node[3].appl 	receivedWSMs 	0
scalar MyScenario.node[3].appl 	generatedBSMs 	0
scalar MyScenario.node[3].appl 	receivedBSMs 	0
scalar MyScenario.node[3].appl 	generatedWSAs 	0
scalar MyScenario.node[3].appl 	receivedWSAs 	0
scalar MyScenario.node[3].nic.phy80211p 	busyTime 	1.0545454545455e-05
scalar MyScenario.node[3].nic.mac1609_4 	ReceivedUnicastPackets 	0
scalar MyScenario.node[3].nic.mac1609_4 	ReceivedBroadcasts 	0
scalar MyScenario.node[3].nic.mac1609_4 	SentPackets 	0
scalar MyScenario.node[3].nic.mac1609_4 	SNIRLostPackets 	2
scalar MyScenario.node[3].nic.mac1609_4 	RXTXLostPackets 	0
scalar MyScenario.node[3].nic.mac1609_4 	TotalLostPackets 	2
scalar MyScenario.node[3].nic.mac1609_4 	DroppedPacketsInMac 	0
scalar MyScenario.node[3].nic.mac1609_4 	TooLittleTime 	0
scalar MyScenario.node[3].nic.mac1609_4 	TimesIntoBackoff 	0
scalar MyScenario.node[3].nic.mac1609_4 	SlotsBackoff 	0
scalar MyScenario.node[3].nic.mac1609_4 	NumInternalContention 	0
scalar MyScenario.node[3].nic.mac1609_4 	totalBusyTime 	0.000464
scalar MyScenario.node[3].veinsmobility 	startTime 	1
scalar MyScenario.node[3].veinsmobility 	totalTime 	43
scalar MyScenario.node[3].veinsmobility 	stopTime 	45
scalar MyScenario.node[3].veinsmobility 	minSpeed 	1.6466057849582
scalar MyScenario.node[3].veinsmobility 	maxSpeed 	13.845707782847
scalar MyScenario.node[3].veinsmobility 	totalDistance 	462.49785645125
scalar MyScenario.node[3].veinsmobility 	totalCO2Emission 	154.74772154767
scalar MyScenario.node[93].appl 	generatedWSMs 	1
scalar MyScenario.node[93].appl 	receivedWSMs 	1
scalar MyScenario.node[93].appl 	generatedBSMs 	0
scalar MyScenario.node[93].appl 	receivedBSMs 	0
scalar MyScenario.node[93].appl 	generatedWSAs 	0
scalar MyScenario.node[93].appl 	receivedWSAs 	0
scalar MyScenario.node[93].nic.phy80211p 	busyTime 	1.6186046511628e-05
scalar MyScenario.node[93].nic.mac1609_4 	ReceivedUnicastPackets 	0
scalar MyScenario.node[93].nic.mac1609_4 	ReceivedBroadcasts 	1
scalar MyScenario.node[93].nic.mac1609_4 	SentPackets 	1
scalar MyScenario.node[93].nic.mac1609_4 	SNIRLostPackets 	2
scalar MyScenario.node[93].nic.mac1609_4 	RXTXLostPackets 	4
scalar MyScenario.node[93].nic.mac1609_4 	TotalLostPackets 	6
scalar MyScenario.node[93].nic.mac1609_4 	DroppedPacketsInMac 	0
scalar MyScenario.node[93].nic.mac1609_4 	TooLittleTime 	0
scalar MyScenario.node[93].nic.mac1609_4 	TimesIntoBackoff 	1
scalar MyScenario.node[93].nic.mac1609_4 	SlotsBackoff 	2
scalar MyScenario.node[93].nic.mac1609_4 	NumInternalContention 	0
scalar MyScenario.node[93].nic.mac1609_4 	totalBusyTime 	0.000929
scalar MyScenario.node[93].veinsmobility 	startTime 	4
scalar MyScenario.node[93].veinsmobility 	totalTime 	42
scalar MyScenario.node[93].veinsmobility 	stopTime 	47
scalar MyScenario.node[93].veinsmobility 	minSpeed 	1.5459117496852
scalar MyScenario.node[93].veinsmobility 	maxSpeed 	13.851985048479
scalar MyScenario.node[93].veinsmobility 	totalDistance 	475.20011865741
scalar MyScenario.node[93].veinsmobility 	totalCO2Emission 	126.65951908931
scalar MyScenario.node[81].appl 	generatedWSMs 	0
scalar MyScenario.node[81].appl 	receivedWSMs 	0
scalar MyScenario.node[81].appl 	generatedBSMs 	0
scalar MyScenario.node[81].appl 	receivedBSMs 	0
scalar MyScenario.node[81].appl 	generatedWSAs 	0
scalar MyScenario.node[81].appl 	receivedWSAs 	0
scalar MyScenario.node[81].nic.phy80211p 	busyTime 	1.4204081632653e-05
scalar MyScenario.node[81].nic.mac1609_4 	ReceivedUnicastPackets 	0
scalar MyScenario.node[81].nic.mac1609_4 	ReceivedBroadcasts 	0
scalar MyScenario.node[81].nic.mac1609_4 	SentPackets 	0
scalar MyScenario.node[81].nic.mac1609_4 	SNIRLostPackets 	3
scalar MyScenario.node[81].nic.mac1609_4 	RXTXLostPackets 	0
scalar MyScenario.node[81].nic.mac1609_4 	TotalLostPackets 	3
scalar MyScenario.node[81].nic.mac1609_4 	DroppedPacketsInMac 	0
scalar MyScenario.node[81].nic.mac1609_4 	TooLittleTime 	0
scalar MyScenario.node[81].nic.mac1609_4 	TimesIntoBackoff 	0
scalar MyScenario.node[81].nic.mac1609_4 	SlotsBackoff 	0
scalar MyScenario.node[81].nic.mac1609_4 	NumInternalContention 	0
scalar MyScenario.node[81].nic.mac1609_4 	totalBusyTime 	0.000464
scalar MyScenario.node[81].veinsmobility 	startTime 	1
scalar MyScenario.node[81].veinsmobility 	totalTime 	48
scalar MyScenario.node[81].veinsmobility 	stopTime 	50
scalar MyScenario.node[81].veinsmobility 	minSpeed 	2.069022986223
scalar MyScenario.node[81].veinsmobility 	maxSpeed 	13.870037063421
scalar MyScenario.node[81].veinsmobility 	totalDistance 	576.71689480222
scalar MyScenario.node[81].veinsmobility 	totalCO2Emission 	139.07034476127
scalar MyScenario.node[86].appl 	generatedWSMs 	0
scalar MyScenario.node[86].appl 	receivedWSMs 	0
scalar MyScenario.node[86].appl 	generatedBSMs 	0
scalar MyScenario.node[86].appl 	receivedBSMs 	0
scalar MyScenario.node[86].appl 	generatedWSAs 	0
scalar MyScenario.node[86].appl 	receivedWSAs 	0
scalar MyScenario.node[86].nic.phy80211p 	busyTime 	0
scalar MyScenario.node[86].nic.mac1609_4 	ReceivedUnicastPackets 	0
scalar MyScenario.node[86].nic.mac1609_4 	ReceivedBroadcasts 	0
scalar MyScenario.node[86].nic.mac1609_4 	SentPackets 	0
scalar MyScenario.node[86].nic.mac1609_4 	SNIRLostPackets 	0
scalar MyScenario.node[86].nic.mac1609_4 	RXTXLostPackets 	0
scalar MyScenario.node[86].nic.mac1609_4 	TotalLostPackets 	0
scalar MyScenario.node[86].nic.mac1609_4 	DroppedPacketsInMac 	0
scalar MyScenario.node[86].nic.mac1609_4 	TooLittleTime 	0
scalar MyScenario.node[86].nic.mac1609_4 	TimesIntoBackoff 	0
scalar MyScenario.node[86].nic.mac1609_4 	SlotsBackoff 	0
scalar MyScenario.node[86].nic.mac1609_4 	NumInternalContention 	0
scalar MyScenario.node[86].nic.mac1609_4 	totalBusyTime 	0
scalar MyScenario.node[86].veinsmobility 	startTime 	1
scalar MyScenario.node[86].veinsmobility 	totalTime 	48
scalar MyScenario.node[86].veinsmobility 	stopTime 	50
scalar MyScenario.node[86].veinsmobility 	minSpeed 	2.2607362974435
scalar MyScenario.node[86].veinsmobility 	maxSpeed 	13.869128348934
scalar MyScenario.node[86].veinsmobility 	totalDistance 	579.12365419091
scalar MyScenario.node[86].veinsmobility 	totalCO2Emission 	142.51291387028
scalar MyScenario.node[39].appl 	generatedWSMs 	1
scalar MyScenario.node[39].appl 	receivedWSMs 	14
scalar MyScenario.node[39].appl 	generatedBSMs 	0
scalar MyScenario.node[39].appl 	receivedBSMs 	0
scalar MyScenario.node[39].appl 	generatedWSAs 	0
scalar MyScenario.node[39].appl 	receivedWSAs 	0
scalar MyScenario.node[39].nic.phy80211p 	busyTime 	0.0001392
scalar MyScenario.node[39].nic.mac1609_4 	ReceivedUnicastPackets 	0
scalar MyScenario.node[39].nic.mac1609_4 	ReceivedBroadcasts 	14
scalar MyScenario.node[39].nic.mac1609_4 	SentPackets 	1
scalar MyScenario.node[39].nic.mac1609_4 	SNIRLostPackets 	16
scalar MyScenario.node[39].nic.mac1609_4 	RXTXLostPackets 	4
scalar MyScenario.node[39].nic.mac1609_4 	TotalLostPackets 	20
scalar MyScenario.node[39].nic.mac1609_4 	DroppedPacketsInMac 	0
scalar MyScenario.node[39].nic.mac1609_4 	TooLittleTime 	0
scalar MyScenario.node[39].nic.mac1609_4 	TimesIntoBackoff 	1
scalar MyScenario.node[39].nic.mac1609_4 	SlotsBackoff 	3
scalar MyScenario.node[39].nic.mac1609_4 	NumInternalContention 	0
scalar MyScenario.node[39].nic.mac1609_4 	totalBusyTime 	0.004641
scalar MyScenario.node[39].veinsmobility 	startTime 	1
scalar MyScenario.node[39].veinsmobility 	totalTime 	49
scalar MyScenario.node[39].veinsmobility 	stopTime 	51
scalar MyScenario.node[39].veinsmobility 	minSpeed 	0.051181801430728
scalar MyScenario.node[39].veinsmobility 	maxSpeed 	13.87208914978
scalar MyScenario.node[39].veinsmobility 	totalDistance 	479.78898877688
scalar MyScenario.node[39].veinsmobility 	totalCO2Emission 	170.51316698231
scalar MyScenario.node[27].appl 	generatedWSMs 	1
scalar MyScenario.node[27].appl 	receivedWSMs 	6
scalar MyScenario.node[27].appl 	generatedBSMs 	0
scalar MyScenario.node[27].appl 	receivedBSMs 	0
scalar MyScenario.node[27].appl 	generatedWSAs 	0
scalar MyScenario.node[27].appl 	receivedWSAs 	0
scalar MyScenario.node[27].nic.phy80211p 	busyTime 	4.176e-05
scalar MyScenario.node[27].nic.mac1609_4 	ReceivedUnicastPackets 	0
scalar MyScenario.node[27].nic.mac1609_4 	ReceivedBroadcasts 	6
scalar MyScenario.node[27].nic.mac1609_4 	SentPackets 	1
scalar MyScenario.node[27].nic.mac1609_4 	SNIRLostPackets 	3
scalar MyScenario.node[27].nic.mac1609_4 	RXTXLostPackets 	4
scalar MyScenario.node[27].nic.mac1609_4 	TotalLostPackets 	7
scalar MyScenario.node[27].nic.mac1609_4 	DroppedPacketsInMac 	0
scalar MyScenario.node[27].nic.mac1609_4 	TooLittleTime 	0
scalar MyScenario.node[27].nic.mac1609_4 	TimesIntoBackoff 	1
scalar MyScenario.node[27].nic.mac1609_4 	SlotsBackoff 	0
scalar MyScenario.node[27].nic.mac1609_4 	NumInternalContention 	0
scalar MyScenario.node[27].nic.mac1609_4 	totalBusyTime 	0.002089
scalar MyScenario.node[27].veinsmobility 	startTime 	1
scalar MyScenario.node[27].veinsmobility 	totalTime 	49
scalar MyScenario.node[27].veinsmobility 	stopTime 	51
scalar MyScenario.node[27].veinsmobility 	minSpeed 	1.823176932591
scalar MyScenario.node[27].veinsmobility 	maxSpeed 	13.87072796314
scalar MyScenario.node[27].veinsmobility 	totalDistance 	570.87633179485
scalar MyScenario.node[27].veinsmobility 	totalCO2Emission 	151.34276091255
scalar MyScenario.node[0].appl 	generatedWSMs 	17
scalar MyScenario.node[0].appl 	receivedWSMs 	6
scalar MyScenario.node[0].appl 	generatedBSMs 	0
scalar MyScenario.node[0].appl 	receivedBSMs 	0
scalar MyScenario.node[0].appl 	generatedWSAs 	0
scalar MyScenario.node[0].appl 	receivedWSAs 	0
scalar MyScenario.node[0].nic.phy80211p 	busyTime 	0.00011827450980392
scalar MyScenario.node[0].nic.mac1609_4 	ReceivedUnicastPackets 	0
scalar MyScenario.node[0].nic.mac1609_4 	ReceivedBroadcasts 	6
scalar MyScenario.node[0].nic.mac1609_4 	SentPackets 	17
scalar MyScenario.node[0].nic.mac1609_4 	SNIRLostPackets 	20
scalar MyScenario.node[0].nic.mac1609_4 	RXTXLostPackets 	0
scalar MyScenario.node[0].nic.mac1609_4 	TotalLostPackets 	20
scalar MyScenario.node[0].nic.mac1609_4 	DroppedPacketsInMac 	0
scalar MyScenario.node[0].nic.mac1609_4 	TooLittleTime 	0
scalar MyScenario.node[0].nic.mac1609_4 	TimesIntoBackoff 	17
scalar MyScenario.node[0].nic.mac1609_4 	SlotsBackoff 	15
scalar MyScenario.node[0].nic.mac1609_4 	NumInternalContention 	0
scalar MyScenario.node[0].nic.mac1609_4 	totalBusyTime 	0.006049
scalar MyScenario.node[0].veinsmobility 	startTime 	1
scalar MyScenario.node[0].veinsmobility 	totalTime 	50
scalar MyScenario.node[0].veinsmobility 	stopTime 	52
scalar MyScenario.node[0].veinsmobility 	minSpeed 	2.593293105159
scalar MyScenario.node[0].veinsmobility 	maxSpeed 	13.853009131807
scalar MyScenario.node[0].veinsmobility 	totalDistance 	556.99090736173
scalar MyScenario.node[0].veinsmobility 	totalCO2Emission 	165.65279209134
scalar MyScenario.node[72].appl 	generatedWSMs 	1
scalar MyScenario.node[72].appl 	receivedWSMs 	1
scalar MyScenario.node[72].appl 	generatedBSMs 	0
scalar MyScenario.node[72].appl 	receivedBSMs 	0
scalar MyScenario.node[72].appl 	generatedWSAs 	0
scalar MyScenario.node[72].appl 	receivedWSAs 	0
scalar MyScenario.node[72].nic.phy80211p 	busyTime 	1.8196078431373e-05
scalar MyScenario.node[72].nic.mac1609_4 	ReceivedUnicastPackets 	0
scalar MyScenario.node[72].nic.mac1609_4 	ReceivedBroadcasts 	1
scalar MyScenario.node[72].nic.mac1609_4 	SentPackets 	1
scalar MyScenario.node[72].nic.mac1609_4 	SNIRLostPackets 	3
scalar MyScenario.node[72].nic.mac1609_4 	RXTXLostPackets 	5
scalar MyScenario.node[72].nic.mac1609_4 	TotalLostPackets 	8
scalar MyScenario.node[72].nic.mac1609_4 	DroppedPacketsInMac 	0
scalar MyScenario.node[72].nic.mac1609_4 	TooLittleTime 	0
scalar MyScenario.node[72].nic.mac1609_4 	TimesIntoBackoff 	1
scalar MyScenario.node[72].nic.mac1609_4 	SlotsBackoff 	1
scalar MyScenario.node[72].nic.mac1609_4 	NumInternalContention 	0
scalar MyScenario.node[72].nic.mac1609_4 	totalBusyTime 	0.000929059786
scalar MyScenario.node[72].veinsmobility 	startTime 	1
scalar MyScenario.node[72].veinsmobility 	totalTime 	50
scalar MyScenario.node[72].veinsmobility 	stopTime 	52
scalar MyScenario.node[72].veinsmobility 	minSpeed 	1.8190344548319
scalar MyScenario.node[72].veinsmobility 	maxSpeed 	13.775141310203
scalar MyScenario.node[72].veinsmobility 	totalDistance 	563.17584227136
scalar MyScenario.node[72].veinsmobility 	totalCO2Emission 	157.80542032299
scalar MyScenario.node[82].appl 	generatedWSMs 	1
scalar MyScenario.node[82].appl 	receivedWSMs 	7
scalar MyScenario.node[82].appl 	generatedBSMs 	0
scalar MyScenario.node[82].appl 	receivedBSMs 	0
scalar MyScenario.node[82].appl 	generatedWSAs 	0
scalar MyScenario.node[82].appl 	receivedWSAs 	0
scalar MyScenario.node[82].nic.phy80211p 	busyTime 	4.4615384615385e-05
scalar MyScenario.node[82].nic.mac1609_4 	ReceivedUnicastPackets 	0
scalar MyScenario.node[82].nic.mac1609_4 	ReceivedBroadcasts 	7
scalar MyScenario.node[82].nic.mac1609_4 	SentPackets 	1
scalar MyScenario.node[82].nic.mac1609_4 	SNIRLostPackets 	3
scalar MyScenario.node[82].nic.mac1609_4 	RXTXLostPackets 	10
scalar MyScenario.node[82].nic.mac1609_4 	TotalLostPackets 	13
scalar MyScenario.node[82].nic.mac1609_4 	DroppedPacketsInMac 	0
scalar MyScenario.node[82].nic.mac1609_4 	TooLittleTime 	0
scalar MyScenario.node[82].nic.mac1609_4 	TimesIntoBackoff 	1
scalar MyScenario.node[82].nic.mac1609_4 	SlotsBackoff 	1
scalar MyScenario.node[82].nic.mac1609_4 	NumInternalContention 	0
scalar MyScenario.node[82].nic.mac1609_4 	totalBusyTime 	0.002321018683
scalar MyScenario.node[82].veinsmobility 	startTime 	1
scalar MyScenario.node[82].veinsmobility 	totalTime 	51
scalar MyScenario.node[82].veinsmobility 	stopTime 	53
scalar MyScenario.node[82].veinsmobility 	minSpeed 	1.777147970628
scalar MyScenario.node[82].veinsmobility 	maxSpeed 	13.898984837253
scalar MyScenario.node[82].veinsmobility 	totalDistance 	571.95256038831
scalar MyScenario.node[82].veinsmobility 	totalCO2Emission 	162.67782411585
scalar MyScenario.node[37].appl 	generatedWSMs 	0
scalar MyScenario.node[37].appl 	receivedWSMs 	0
scalar MyScenario.node[37].appl 	generatedBSMs 	0
scalar MyScenario.node[37].appl 	receivedBSMs 	0
scalar MyScenario.node[37].appl 	generatedWSAs 	0
scalar MyScenario.node[37].appl 	receivedWSAs 	0
scalar MyScenario.node[37].nic.phy80211p 	busyTime 	1.7509433962264e-05
scalar MyScenario.node[37].nic.mac1609_4 	ReceivedUnicastPackets 	0
scalar MyScenario.node[37].nic.mac1609_4 	ReceivedBroadcasts 	0
scalar MyScenario.node[37].nic.mac1609_4 	SentPackets 	0
scalar MyScenario.node[37].nic.mac1609_4 	SNIRLostPackets 	4
scalar MyScenario.node[37].nic.mac1609_4 	RXTXLostPackets 	0
scalar MyScenario.node[37].nic.mac1609_4 	TotalLostPackets 	4
scalar MyScenario.node[37].nic.mac1609_4 	DroppedPacketsInMac 	0
scalar MyScenario.node[37].nic.mac1609_4 	TooLittleTime 	0
scalar MyScenario.node[37].nic.mac1609_4 	TimesIntoBackoff 	0
scalar MyScenario.node[37].nic.mac1609_4 	SlotsBackoff 	0
scalar MyScenario.node[37].nic.mac1609_4 	NumInternalContention 	0
scalar MyScenario.node[37].nic.mac1609_4 	totalBusyTime 	0.000696
scalar MyScenario.node[37].veinsmobility 	startTime 	1
scalar MyScenario.node[37].veinsmobility 	totalTime 	52
scalar MyScenario.node[37].veinsmobility 	stopTime 	54
scalar MyScenario.node[37].veinsmobility 	minSpeed 	2.0262469066074
scalar MyScenario.node[37].veinsmobility 	maxSpeed 	13.881051484309
scalar MyScenario.node[37].veinsmobility 	totalDistance 	560.75718348995
scalar MyScenario.node[37].veinsmobility 	totalCO2Emission 	174.64446079038
scalar MyScenario.node[92].appl 	generatedWSMs 	1
scalar MyScenario.node[92].appl 	receivedWSMs 	1
scalar MyScenario.node[92].appl 	generatedBSMs 	0
scalar MyScenario.node[92].appl 	receivedBSMs 	0
scalar MyScenario.node[92].appl 	generatedWSAs 	0
scalar MyScenario.node[92].appl 	receivedWSAs 	0
scalar MyScenario.node[92].nic.phy80211p 	busyTime 	4.64e-06
scalar MyScenario.node[92].nic.mac1609_4 	ReceivedUnicastPackets 	0
scalar MyScenario.node[92].nic.mac1609_4 	ReceivedBroadcasts 	1
scalar MyScenario.node[92].nic.mac1609_4 	SentPackets 	1
scalar MyScenario.node[92].nic.mac1609_4 	SNIRLostPackets 	0
scalar MyScenario.node[92].nic.mac1609_4 	RXTXLostPackets 	4
scalar MyScenario.node[92].nic.mac1609_4 	TotalLostPackets 	4
scalar MyScenario.node[92].nic.mac1609_4 	DroppedPacketsInMac 	0
scalar MyScenario.node[92].nic.mac1609_4 	TooLittleTime 	0
scalar MyScenario.node[92].nic.mac1609_4 	TimesIntoBackoff 	1
scalar MyScenario.node[92].nic.mac1609_4 	SlotsBackoff 	3
scalar MyScenario.node[92].nic.mac1609_4 	NumInternalContention 	0
scalar MyScenario.node[92].nic.mac1609_4 	totalBusyTime 	0.000465022209
scalar MyScenario.node[92].veinsmobility 	startTime 	4
scalar MyScenario.node[92].veinsmobility 	totalTime 	49
scalar MyScenario.node[92].veinsmobility 	stopTime 	54
scalar MyScenario.node[92].veinsmobility 	minSpeed 	1.8757933050161
scalar MyScenario.node[92].veinsmobility 	maxSpeed 	13.895957878162
scalar MyScenario.node[92].veinsmobility 	totalDistance 	571.38130871907
scalar MyScenario.node[92].veinsmobility 	totalCO2Emission 	141.62806371234
scalar MyScenario.node[78].appl 	generatedWSMs 	0
scalar MyScenario.node[78].appl 	receivedWSMs 	0
scalar MyScenario.node[78].appl 	generatedBSMs 	0
scalar MyScenario.node[78].appl 	receivedBSMs 	0
scalar MyScenario.node[78].appl 	generatedWSAs 	0
scalar MyScenario.node[78].appl 	receivedWSAs 	0
scalar MyScenario.node[78].nic.phy80211p 	busyTime 	0
scalar MyScenario.node[78].nic.mac1609_4 	ReceivedUnicastPackets 	0
scalar MyScenario.node[78].nic.mac1609_4 	ReceivedBroadcasts 	0
scalar MyScenario.node[78].nic.mac1609_4 	SentPackets 	0
scalar MyScenario.node[78].nic.mac1609_4 	SNIRLostPackets 	0
scalar MyScenario.node[78].nic.mac1609_4 	RXTXLostPackets 	0
scalar MyScenario.node[78].nic.mac1609_4 	TotalLostPackets 	0
scalar MyScenario.node[78].nic.mac1609_4 	DroppedPacketsInMac 	0
scalar MyScenario.node[78].nic.mac1609_4 	TooLittleTime 	0
scalar MyScenario.node[78].nic.mac1609_4 	TimesIntoBackoff 	0
scalar MyScenario.node[78].nic.mac1609_4 	SlotsBackoff 	0
scalar MyScenario.node[78].nic.mac1609_4 	NumInternalContention 	0
scalar MyScenario.node[78].nic.mac1609_4 	totalBusyTime 	0
scalar MyScenario.node[78].veinsmobility 	startTime 	1
scalar MyScenario.node[78].veinsmobility 	totalTime 	52
scalar MyScenario.node[78].veinsmobility 	stopTime 	54
scalar MyScenario.node[78].veinsmobility 	minSpeed 	2.3673339195084
scalar MyScenario.node[78].veinsmobility 	maxSpeed 	13.8488797731
scalar MyScenario.node[78].veinsmobility 	totalDistance 	572.62299201757
scalar MyScenario.node[78].veinsmobility 	totalCO2Emission 	177.15236900485
scalar MyScenario.node[69].appl 	generatedWSMs 	1
scalar MyScenario.node[69].appl 	receivedWSMs 	6
scalar MyScenario.node[69].appl 	generatedBSMs 	0
scalar MyScenario.node[69].appl 	receivedBSMs 	0
scalar MyScenario.node[69].appl 	generatedWSAs 	0
scalar MyScenario.node[69].appl 	receivedWSAs 	0
scalar MyScenario.node[69].nic.phy80211p 	busyTime 	4.7259259259259e-05
scalar MyScenario.node[69].nic.mac1609_4 	ReceivedUnicastPackets 	0
scalar MyScenario.node[69].nic.mac1609_4 	ReceivedBroadcasts 	6
scalar MyScenario.node[69].nic.mac1609_4 	SentPackets 	1
scalar MyScenario.node[69].nic.mac1609_4 	SNIRLostPackets 	5
scalar MyScenario.node[69].nic.mac1609_4 	RXTXLostPackets 	9
scalar MyScenario.node[69].nic.mac1609_4 	TotalLostPackets 	14
scalar MyScenario.node[69].nic.mac1609_4 	DroppedPacketsInMac 	0
scalar MyScenario.node[69].nic.mac1609_4 	TooLittleTime 	0
scalar MyScenario.node[69].nic.mac1609_4 	TimesIntoBackoff 	1
scalar MyScenario.node[69].nic.mac1609_4 	SlotsBackoff 	0
scalar MyScenario.node[69].nic.mac1609_4 	NumInternalContention 	0
scalar MyScenario.node[69].nic.mac1609_4 	totalBusyTime 	0.002321009503
scalar MyScenario.node[69].veinsmobility 	startTime 	1
scalar MyScenario.node[69].veinsmobility 	totalTime 	53
scalar MyScenario.node[69].veinsmobility 	stopTime 	55
scalar MyScenario.node[69].veinsmobility 	minSpeed 	2.5883180771489
scalar MyScenario.node[69].veinsmobility 	maxSpeed 	13.886018776125
scalar MyScenario.node[69].veinsmobility 	totalDistance 	571.27492801752
scalar MyScenario.node[69].veinsmobility 	totalCO2Emission 	181.4871783006
scalar MyScenario.node[11].appl 	generatedWSMs 	0
scalar MyScenario.node[11].appl 	receivedWSMs 	0
scalar MyScenario.node[11].appl 	generatedBSMs 	0
scalar MyScenario.node[11].appl 	receivedBSMs 	0
scalar MyScenario.node[11].appl 	generatedWSAs 	0
scalar MyScenario.node[11].appl 	receivedWSAs 	0
scalar MyScenario.node[11].nic.phy80211p 	busyTime 	1.7185185185185e-05
scalar MyScenario.node[11].nic.mac1609_4 	ReceivedUnicastPackets 	0
scalar MyScenario.node[11].nic.mac1609_4 	ReceivedBroadcasts 	0
scalar MyScenario.node[11].nic.mac1609_4 	SentPackets 	0
scalar MyScenario.node[11].nic.mac1609_4 	SNIRLostPackets 	4
scalar MyScenario.node[11].nic.mac1609_4 	RXTXLostPackets 	0
scalar MyScenario.node[11].nic.mac1609_4 	TotalLostPackets 	4
scalar MyScenario.node[11].nic.mac1609_4 	DroppedPacketsInMac 	0
scalar MyScenario.node[11].nic.mac1609_4 	TooLittleTime 	0
scalar MyScenario.node[11].nic.mac1609_4 	TimesIntoBackoff 	0
scalar MyScenario.node[11].nic.mac1609_4 	SlotsBackoff 	0
scalar MyScenario.node[11].nic.mac1609_4 	NumInternalContention 	0
scalar MyScenario.node[11].nic.mac1609_4 	totalBusyTime 	0.000232
scalar MyScenario.node[11].veinsmobility 	startTime 	1
scalar MyScenario.node[11].veinsmobility 	totalTime 	53
scalar MyScenario.node[11].veinsmobility 	stopTime 	55
scalar MyScenario.node[11].veinsmobility 	minSpeed 	0.93345812087004
scalar MyScenario.node[11].veinsmobility 	maxSpeed 	13.870435591671
scalar MyScenario.node[11].veinsmobility 	totalDistance 	564.20478292473
scalar MyScenario.node[11].veinsmobility 	totalCO2Emission 	166.47857016113
scalar MyScenario.node[47].appl 	generatedWSMs 	0
scalar MyScenario.node[47].appl 	receivedWSMs 	0
scalar MyScenario.node[47].appl 	generatedBSMs 	0
scalar MyScenario.node[47].appl 	receivedBSMs 	0
scalar MyScenario.node[47].appl 	generatedWSAs 	0
scalar MyScenario.node[47].appl 	receivedWSAs 	0
scalar MyScenario.node[47].nic.phy80211p 	busyTime 	3.7963636363636e-05
scalar MyScenario.node[47].nic.mac1609_4 	ReceivedUnicastPackets 	0
scalar MyScenario.node[47].nic.mac1609_4 	ReceivedBroadcasts 	0
scalar MyScenario.node[47].nic.mac1609_4 	SentPackets 	0
scalar MyScenario.node[47].nic.mac1609_4 	SNIRLostPackets 	9
scalar MyScenario.node[47].nic.mac1609_4 	RXTXLostPackets 	0
scalar MyScenario.node[47].nic.mac1609_4 	TotalLostPackets 	9
scalar MyScenario.node[47].nic.mac1609_4 	DroppedPacketsInMac 	0
scalar MyScenario.node[47].nic.mac1609_4 	TooLittleTime 	0
scalar MyScenario.node[47].nic.mac1609_4 	TimesIntoBackoff 	0
scalar MyScenario.node[47].nic.mac1609_4 	SlotsBackoff 	0
scalar MyScenario.node[47].nic.mac1609_4 	NumInternalContention 	0
scalar MyScenario.node[47].nic.mac1609_4 	totalBusyTime 	0.000928
scalar MyScenario.node[47].veinsmobility 	startTime 	1
scalar MyScenario.node[47].veinsmobility 	totalTime 	54
scalar MyScenario.node[47].veinsmobility 	stopTime 	56
scalar MyScenario.node[47].veinsmobility 	minSpeed 	0.12697407786151
scalar MyScenario.node[47].veinsmobility 	maxSpeed 	13.899429295049
scalar MyScenario.node[47].veinsmobility 	totalDistance 	555.93984006036
scalar MyScenario.node[47].veinsmobility 	totalCO2Emission 	187.0067322651
scalar MyScenario.node[76].appl 	generatedWSMs 	0
scalar MyScenario.node[76].appl 	receivedWSMs 	0
scalar MyScenario.node[76].appl 	generatedBSMs 	0
scalar MyScenario.node[76].appl 	receivedBSMs 	0
scalar MyScenario.node[76].appl 	generatedWSAs 	0
scalar MyScenario.node[76].appl 	receivedWSAs 	0
scalar MyScenario.node[76].nic.phy80211p 	busyTime 	0
scalar MyScenario.node[76].nic.mac1609_4 	ReceivedUnicastPackets 	0
scalar MyScenario.node[76].nic.mac1609_4 	ReceivedBroadcasts 	0
scalar MyScenario.node[76].nic.mac1609_4 	SentPackets 	0
scalar MyScenario.node[76].nic.mac1609_4 	SNIRLostPackets 	0
scalar MyScenario.node[76].nic.mac1609_4 	RXTXLostPackets 	0
scalar MyScenario.node[76].nic.mac1609_4 	TotalLostPackets 	0
scalar MyScenario.node[76].nic.mac1609_4 	DroppedPacketsInMac 	0
scalar MyScenario.node[76].nic.mac1609_4 	TooLittleTime 	0
scalar MyScenario.node[76].nic.mac1609_4 	TimesIntoBackoff 	0
scalar MyScenario.node[76].nic.mac1609_4 	SlotsBackoff 	0
scalar MyScenario.node[76].nic.mac1609_4 	NumInternalContention 	0
scalar MyScenario.node[76].nic.mac1609_4 	totalBusyTime 	0
scalar MyScenario.node[76].veinsmobility 	startTime 	1
scalar MyScenario.node[76].veinsmobility 	totalTime 	54
scalar MyScenario.node[76].veinsmobility 	stopTime 	56
scalar MyScenario.node[76].veinsmobility 	minSpeed 	0.33989729856157
scalar MyScenario.node[76].veinsmobility 	maxSpeed 	13.897665980086
scalar MyScenario.node[76].veinsmobility 	totalDistance 	571.30373839109
scalar MyScenario.node[76].veinsmobility 	totalCO2Emission 	163.40886902223
scalar MyScenario.node[90].appl 	generatedWSMs 	0
scalar MyScenario.node[90].appl 	receivedWSMs 	0
scalar MyScenario.node[90].appl 	generatedBSMs 	0
scalar MyScenario.node[90].appl 	receivedBSMs 	0
scalar MyScenario.node[90].appl 	generatedWSAs 	0
scalar MyScenario.node[90].appl 	receivedWSAs 	0
scalar MyScenario.node[90].nic.phy80211p 	busyTime 	8.2857142857143e-06
scalar MyScenario.node[90].nic.mac1609_4 	ReceivedUnicastPackets 	0
scalar MyScenario.node[90].nic.mac1609_4 	ReceivedBroadcasts 	0
scalar MyScenario.node[90].nic.mac1609_4 	SentPackets 	0
scalar MyScenario.node[90].nic.mac1609_4 	SNIRLostPackets 	2
scalar MyScenario.node[90].nic.mac1609_4 	RXTXLostPackets 	0
scalar MyScenario.node[90].nic.mac1609_4 	TotalLostPackets 	2
scalar MyScenario.node[90].nic.mac1609_4 	DroppedPacketsInMac 	0
scalar MyScenario.node[90].nic.mac1609_4 	TooLittleTime 	0
scalar MyScenario.node[90].nic.mac1609_4 	TimesIntoBackoff 	0
scalar MyScenario.node[90].nic.mac1609_4 	SlotsBackoff 	0
scalar MyScenario.node[90].nic.mac1609_4 	NumInternalContention 	0
scalar MyScenario.node[90].nic.mac1609_4 	totalBusyTime 	0.000464
scalar MyScenario.node[90].veinsmobility 	startTime 	1
scalar MyScenario.node[90].veinsmobility 	totalTime 	55
scalar MyScenario.node[90].veinsmobility 	stopTime 	57
scalar MyScenario.node[90].veinsmobility 	minSpeed 	0.29659246464731
scalar MyScenario.node[90].veinsmobility 	maxSpeed 	13.842968143802
scalar MyScenario.node[90].veinsmobility 	totalDistance 	555.26930907025
scalar MyScenario.node[90].veinsmobility 	totalCO2Emission 	180.44937906456
scalar MyScenario.node[35].appl 	generatedWSMs 	0
scalar MyScenario.node[35].appl 	receivedWSMs 	0
scalar MyScenario.node[35].appl 	generatedBSMs 	0
scalar MyScenario.node[35].appl 	receivedBSMs 	0
scalar MyScenario.node[35].appl 	generatedWSAs 	0
scalar MyScenario.node[35].appl 	receivedWSAs 	0
scalar MyScenario.node[35].nic.phy80211p 	busyTime 	0
scalar MyScenario.node[35].nic.mac1609_4 	ReceivedUnicastPackets 	0
scalar MyScenario.node[35].nic.mac1609_4 	ReceivedBroadcasts 	0
scalar MyScenario.node[35].nic.mac1609_4 	SentPackets 	0
scalar MyScenario.node[35].nic.mac1609_4 	SNIRLostPackets 	0
scalar MyScenario.node[35].nic.mac1609_4 	RXTXLostPackets 	0
scalar MyScenario.node[35].nic.mac1609_4 	TotalLostPackets 	0
scalar MyScenario.node[35].nic.mac1609_4 	DroppedPacketsInMac 	0
scalar MyScenario.node[35].nic.mac1609_4 	TooLittleTime 	0
scalar MyScenario.node[35].nic.mac1609_4 	TimesIntoBackoff 	0
scalar MyScenario.node[35].nic.mac1609_4 	SlotsBackoff 	0
scalar MyScenario.node[35].nic.mac1609_4 	NumInternalContention 	0
scalar MyScenario.node[35].nic.mac1609_4 	totalBusyTime 	0
scalar MyScenario.node[35].veinsmobility 	startTime 	1
scalar MyScenario.node[35].veinsmobility 	totalTime 	56
scalar MyScenario.node[35].veinsmobility 	stopTime 	58
scalar MyScenario.node[35].veinsmobility 	minSpeed 	0.030907202678934
scalar MyScenario.node[35].veinsmobility 	maxSpeed 	13.871475346247
scalar MyScenario.node[35].veinsmobility 	totalDistance 	571.73079167411
scalar MyScenario.node[35].veinsmobility 	totalCO2Emission 	172.84874939003
scalar MyScenario.node[21].appl 	generatedWSMs 	1
scalar MyScenario.node[21].appl 	receivedWSMs 	1
scalar MyScenario.node[21].appl 	generatedBSMs 	0
scalar MyScenario.node[21].appl 	receivedBSMs 	0
scalar MyScenario.node[21].appl 	generatedWSAs 	0
scalar MyScenario.node[21].appl 	receivedWSAs 	0
scalar MyScenario.node[21].nic.phy80211p 	busyTime 	1.2210526315789e-05
scalar MyScenario.node[21].nic.mac1609_4 	ReceivedUnicastPackets 	0
scalar MyScenario.node[21].nic.mac1609_4 	ReceivedBroadcasts 	1
scalar MyScenario.node[21].nic.mac1609_4 	SentPackets 	1
scalar MyScenario.node[21].nic.mac1609_4 	SNIRLostPackets 	2
scalar MyScenario.node[21].nic.mac1609_4 	RXTXLostPackets 	1
scalar MyScenario.node[21].nic.mac1609_4 	TotalLostPackets 	3
scalar MyScenario.node[21].nic.mac1609_4 	DroppedPacketsInMac 	0
scalar MyScenario.node[21].nic.mac1609_4 	TooLittleTime 	0
scalar MyScenario.node[21].nic.mac1609_4 	TimesIntoBackoff 	1
scalar MyScenario.node[21].nic.mac1609_4 	SlotsBackoff 	3
scalar MyScenario.node[21].nic.mac1609_4 	NumInternalContention 	0
scalar MyScenario.node[21].nic.mac1609_4 	totalBusyTime 	0.000697
scalar MyScenario.node[21].veinsmobility 	startTime 	1
scalar MyScenario.node[21].veinsmobility 	totalTime 	56
scalar MyScenario.node[21].veinsmobility 	stopTime 	58
scalar MyScenario.node[21].veinsmobility 	minSpeed 	1.7629114578012
scalar MyScenario.node[21].veinsmobility 	maxSpeed 	13.869091310608
scalar MyScenario.node[21].veinsmobility 	totalDistance 	649.96154545216
scalar MyScenario.node[21].veinsmobility 	totalCO2Emission 	173.31907126931
scalar MyScenario.node[32].appl 	generatedWSMs 	0
scalar MyScenario.node[32].appl 	receivedWSMs 	0
scalar MyScenario.node[32].appl 	generatedBSMs 	0
scalar MyScenario.node[32].appl 	receivedBSMs 	0
scalar MyScenario.node[32].appl 	generatedWSAs 	0
scalar MyScenario.node[32].appl 	receivedWSAs 	0
scalar MyScenario.node[32].nic.phy80211p 	busyTime 	4e-06
scalar MyScenario.node[32].nic.mac1609_4 	ReceivedUnicastPackets 	0
scalar MyScenario.node[32].nic.mac1609_4 	ReceivedBroadcasts 	0
scalar MyScenario.node[32].nic.mac1609_4 	SentPackets 	0
scalar MyScenario.node[32].nic.mac1609_4 	SNIRLostPackets 	1
scalar MyScenario.node[32].nic.mac1609_4 	RXTXLostPackets 	0
scalar MyScenario.node[32].nic.mac1609_4 	TotalLostPackets 	1
scalar MyScenario.node[32].nic.mac1609_4 	DroppedPacketsInMac 	0
scalar MyScenario.node[32].nic.mac1609_4 	TooLittleTime 	0
scalar MyScenario.node[32].nic.mac1609_4 	TimesIntoBackoff 	0
scalar MyScenario.node[32].nic.mac1609_4 	SlotsBackoff 	0
scalar MyScenario.node[32].nic.mac1609_4 	NumInternalContention 	0
scalar MyScenario.node[32].nic.mac1609_4 	totalBusyTime 	0.000232
scalar MyScenario.node[32].veinsmobility 	startTime 	1
scalar MyScenario.node[32].veinsmobility 	totalTime 	57
scalar MyScenario.node[32].veinsmobility 	stopTime 	59
scalar MyScenario.node[32].veinsmobility 	minSpeed 	1.5034134457121
scalar MyScenario.node[32].veinsmobility 	maxSpeed 	13.836432502791
scalar MyScenario.node[32].veinsmobility 	totalDistance 	669.96298336665
scalar MyScenario.node[32].veinsmobility 	totalCO2Emission 	172.08677418081
scalar MyScenario.node[100].appl 	generatedWSMs 	1
scalar MyScenario.node[100].appl 	receivedWSMs 	5
scalar MyScenario.node[100].appl 	generatedBSMs 	0
scalar MyScenario.node[100].appl 	receivedBSMs 	0
scalar MyScenario.node[100].appl 	generatedWSAs 	0
scalar MyScenario.node[100].appl 	receivedWSAs 	0
scalar MyScenario.node[100].nic.phy80211p 	busyTime 	2.4166666666667e-05
scalar MyScenario.node[100].nic.mac1609_4 	ReceivedUnicastPackets 	0
scalar MyScenario.node[100].nic.mac1609_4 	ReceivedBroadcasts 	5
scalar MyScenario.node[100].nic.mac1609_4 	SentPackets 	1
scalar MyScenario.node[100].nic.mac1609_4 	SNIRLostPackets 	0
scalar MyScenario.node[100].nic.mac1609_4 	RXTXLostPackets 	0
scalar MyScenario.node[100].nic.mac1609_4 	TotalLostPackets 	0
scalar MyScenario.node[100].nic.mac1609_4 	DroppedPacketsInMac 	0
scalar MyScenario.node[100].nic.mac1609_4 	TooLittleTime 	0
scalar MyScenario.node[100].nic.mac1609_4 	TimesIntoBackoff 	1
scalar MyScenario.node[100].nic.mac1609_4 	SlotsBackoff 	2
scalar MyScenario.node[100].nic.mac1609_4 	NumInternalContention 	0
scalar MyScenario.node[100].nic.mac1609_4 	totalBusyTime 	0.001393
scalar MyScenario.node[100].veinsmobility 	startTime 	12
scalar MyScenario.node[100].veinsmobility 	totalTime 	47
scalar MyScenario.node[100].veinsmobility 	stopTime 	60
scalar MyScenario.node[100].veinsmobility 	minSpeed 	2.4068059025492
scalar MyScenario.node[100].veinsmobility 	maxSpeed 	13.86599541679
scalar MyScenario.node[100].veinsmobility 	totalDistance 	531.24465964553
scalar MyScenario.node[100].veinsmobility 	totalCO2Emission 	147.42206168458
scalar MyScenario.node[87].appl 	generatedWSMs 	1
scalar MyScenario.node[87].appl 	receivedWSMs 	5
scalar MyScenario.node[87].appl 	generatedBSMs 	0
scalar MyScenario.node[87].appl 	receivedBSMs 	0
scalar MyScenario.node[87].appl 	generatedWSAs 	0
scalar MyScenario.node[87].appl 	receivedWSAs 	0
scalar MyScenario.node[87].nic.phy80211p 	busyTime 	3.8666666666667e-05
scalar MyScenario.node[87].nic.mac1609_4 	ReceivedUnicastPackets 	0
scalar MyScenario.node[87].nic.mac1609_4 	ReceivedBroadcasts 	5
scalar MyScenario.node[87].nic.mac1609_4 	SentPackets 	1
scalar MyScenario.node[87].nic.mac1609_4 	SNIRLostPackets 	5
scalar MyScenario.node[87].nic.mac1609_4 	RXTXLostPackets 	4
scalar MyScenario.node[87].nic.mac1609_4 	TotalLostPackets 	9
scalar MyScenario.node[87].nic.mac1609_4 	DroppedPacketsInMac 	0
scalar MyScenario.node[87].nic.mac1609_4 	TooLittleTime 	0
scalar MyScenario.node[87].nic.mac1609_4 	TimesIntoBackoff 	1
scalar MyScenario.node[87].nic.mac1609_4 	SlotsBackoff 	0
scalar MyScenario.node[87].nic.mac1609_4 	NumInternalContention 	0
scalar MyScenario.node[87].nic.mac1609_4 	totalBusyTime 	0.001625
scalar MyScenario.node[87].veinsmobility 	startTime 	1
scalar MyScenario.node[87].veinsmobility 	totalTime 	59
scalar MyScenario.node[87].veinsmobility 	stopTime 	61
scalar MyScenario.node[87].veinsmobility 	minSpeed 	1.7343211457211e-06
scalar MyScenario.node[87].veinsmobility 	maxSpeed 	13.868412777176
scalar MyScenario.node[87].veinsmobility 	totalDistance 	568.49766575985
scalar MyScenario.node[87].veinsmobility 	totalCO2Emission 	189.37524351162
scalar MyScenario.node[56].appl 	generatedWSMs 	1
scalar MyScenario.node[56].appl 	receivedWSMs 	17
scalar MyScenario.node[56].appl 	generatedBSMs 	0
scalar MyScenario.node[56].appl 	receivedBSMs 	0
scalar MyScenario.node[56].appl 	generatedWSAs 	0
scalar MyScenario.node[56].appl 	receivedWSAs 	0
scalar MyScenario.node[56].nic.phy80211p 	busyTime 	7.2262295081967e-05
scalar MyScenario.node[56].nic.mac1609_4 	ReceivedUnicastPackets 	0
scalar MyScenario.node[56].nic.mac1609_4 	ReceivedBroadcasts 	17
scalar MyScenario.node[56].nic.mac1609_4 	SentPackets 	1
scalar MyScenario.node[56].nic.mac1609_4 	SNIRLostPackets 	2
scalar MyScenario.node[56].nic.mac1609_4 	RXTXLostPackets 	3
scalar MyScenario.node[56].nic.mac1609_4 	TotalLostPackets 	5
scalar MyScenario.node[56].nic.mac1609_4 	DroppedPacketsInMac 	0
scalar MyScenario.node[56].nic.mac1609_4 	TooLittleTime 	0
scalar MyScenario.node[56].nic.mac1609_4 	TimesIntoBackoff 	1
scalar MyScenario.node[56].nic.mac1609_4 	SlotsBackoff 	3
scalar MyScenario.node[56].nic.mac1609_4 	NumInternalContention 	0
scalar MyScenario.node[56].nic.mac1609_4 	totalBusyTime 	0.0044091043
scalar MyScenario.node[56].veinsmobility 	startTime 	1
scalar MyScenario.node[56].veinsmobility 	totalTime 	60
scalar MyScenario.node[56].veinsmobility 	stopTime 	62
scalar MyScenario.node[56].veinsmobility 	minSpeed 	2.3754960775143
scalar MyScenario.node[56].veinsmobility 	maxSpeed 	13.856969803409
scalar MyScenario.node[56].veinsmobility 	totalDistance 	673.13060439287
scalar MyScenario.node[56].veinsmobility 	totalCO2Emission 	208.9901694952
scalar MyScenario.node[51].appl 	generatedWSMs 	1
scalar MyScenario.node[51].appl 	receivedWSMs 	13
scalar MyScenario.node[51].appl 	generatedBSMs 	0
scalar MyScenario.node[51].appl 	receivedBSMs 	0
scalar MyScenario.node[51].appl 	generatedWSAs 	0
scalar MyScenario.node[51].appl 	receivedWSAs 	0
scalar MyScenario.node[51].nic.phy80211p 	busyTime 	5.7049180327869e-05
scalar MyScenario.node[51].nic.mac1609_4 	ReceivedUnicastPackets 	0
scalar MyScenario.node[51].nic.mac1609_4 	ReceivedBroadcasts 	13
scalar MyScenario.node[51].nic.mac1609_4 	SentPackets 	1
scalar MyScenario.node[51].nic.mac1609_4 	SNIRLostPackets 	2
scalar MyScenario.node[51].nic.mac1609_4 	RXTXLostPackets 	9
scalar MyScenario.node[51].nic.mac1609_4 	TotalLostPackets 	11
scalar MyScenario.node[51].nic.mac1609_4 	DroppedPacketsInMac 	0
scalar MyScenario.node[51].nic.mac1609_4 	TooLittleTime 	0
scalar MyScenario.node[51].nic.mac1609_4 	TimesIntoBackoff 	1
scalar MyScenario.node[51].nic.mac1609_4 	SlotsBackoff 	0
scalar MyScenario.node[51].nic.mac1609_4 	NumInternalContention 	0
scalar MyScenario.node[51].nic.mac1609_4 	totalBusyTime 	0.003713
scalar MyScenario.node[51].veinsmobility 	startTime 	1
scalar MyScenario.node[51].veinsmobility 	totalTime 	60
scalar MyScenario.node[51].veinsmobility 	stopTime 	62
scalar MyScenario.node[51].veinsmobility 	minSpeed 	2.4160965752788
scalar MyScenario.node[51].veinsmobility 	maxSpeed 	13.825144259259
scalar MyScenario.node[51].veinsmobility 	totalDistance 	680.21187282344
scalar MyScenario.node[51].veinsmobility 	totalCO2Emission 	205.54950455844
scalar MyScenario.node[28].appl 	generatedWSMs 	1
scalar MyScenario.node[28].appl 	receivedWSMs 	12
scalar MyScenario.node[28].appl 	generatedBSMs 	0
scalar MyScenario.node[28].appl 	receivedBSMs 	0
scalar MyScenario.node[28].appl 	generatedWSAs 	0
scalar MyScenario.node[28].appl 	receivedWSAs 	0
scalar MyScenario.node[28].nic.phy80211p 	busyTime 	6.7354838709677e-05
scalar MyScenario.node[28].nic.mac1609_4 	ReceivedUnicastPackets 	0
scalar MyScenario.node[28].nic.mac1609_4 	ReceivedBroadcasts 	12
scalar MyScenario.node[28].nic.mac1609_4 	SentPackets 	1
scalar MyScenario.node[28].nic.mac1609_4 	SNIRLostPackets 	6
scalar MyScenario.node[28].nic.mac1609_4 	RXTXLostPackets 	8
scalar MyScenario.node[28].nic.mac1609_4 	TotalLostPackets 	14
scalar MyScenario.node[28].nic.mac1609_4 	DroppedPacketsInMac 	0
scalar MyScenario.node[28].nic.mac1609_4 	TooLittleTime 	0
scalar MyScenario.node[28].nic.mac1609_4 	TimesIntoBackoff 	1
scalar MyScenario.node[28].nic.mac1609_4 	SlotsBackoff 	2
scalar MyScenario.node[28].nic.mac1609_4 	NumInternalContention 	0
scalar MyScenario.node[28].nic.mac1609_4 	totalBusyTime 	0.003481082662
scalar MyScenario.node[28].veinsmobility 	startTime 	1
scalar MyScenario.node[28].veinsmobility 	totalTime 	61
scalar MyScenario.node[28].veinsmobility 	stopTime 	63
scalar MyScenario.node[28].veinsmobility 	minSpeed 	1.6026957113766
scalar MyScenario.node[28].veinsmobility 	maxSpeed 	13.874202775792
scalar MyScenario.node[28].veinsmobility 	totalDistance 	672.0735028872
scalar MyScenario.node[28].veinsmobility 	totalCO2Emission 	192.8932151401
scalar MyScenario.node[58].appl 	generatedWSMs 	1
scalar MyScenario.node[58].appl 	receivedWSMs 	7
scalar MyScenario.node[58].appl 	generatedBSMs 	0
scalar MyScenario.node[58].appl 	receivedBSMs 	0
scalar MyScenario.node[58].appl 	generatedWSAs 	0
scalar MyScenario.node[58].appl 	receivedWSAs 	0
scalar MyScenario.node[58].nic.phy80211p 	busyTime 	4.8645161290323e-05
scalar MyScenario.node[58].nic.mac1609_4 	ReceivedUnicastPackets 	0
scalar MyScenario.node[58].nic.mac1609_4 	ReceivedBroadcasts 	7
scalar MyScenario.node[58].nic.mac1609_4 	SentPackets 	1
scalar MyScenario.node[58].nic.mac1609_4 	SNIRLostPackets 	6
scalar MyScenario.node[58].nic.mac1609_4 	RXTXLostPackets 	3
scalar MyScenario.node[58].nic.mac1609_4 	TotalLostPackets 	9
scalar MyScenario.node[58].nic.mac1609_4 	DroppedPacketsInMac 	0
scalar MyScenario.node[58].nic.mac1609_4 	TooLittleTime 	0
scalar MyScenario.node[58].nic.mac1609_4 	TimesIntoBackoff 	1
scalar MyScenario.node[58].nic.mac1609_4 	SlotsBackoff 	0
scalar MyScenario.node[58].nic.mac1609_4 	NumInternalContention 	0
scalar MyScenario.node[58].nic.mac1609_4 	totalBusyTime 	0.002553010148
scalar MyScenario.node[58].veinsmobility 	startTime 	1
scalar MyScenario.node[58].veinsmobility 	totalTime 	61
scalar MyScenario.node[58].veinsmobility 	stopTime 	63
scalar MyScenario.node[58].veinsmobility 	minSpeed 	0.36489769607298
scalar MyScenario.node[58].veinsmobility 	maxSpeed 	13.871315898746
scalar MyScenario.node[58].veinsmobility 	totalDistance 	667.8907600129
scalar MyScenario.node[58].veinsmobility 	totalCO2Emission 	185.03995429698
scalar MyScenario.node[10].appl 	generatedWSMs 	0
scalar MyScenario.node[10].appl 	receivedWSMs 	0
scalar MyScenario.node[10].appl 	generatedBSMs 	0
scalar MyScenario.node[10].appl 	receivedBSMs 	0
scalar MyScenario.node[10].appl 	generatedWSAs 	0
scalar MyScenario.node[10].appl 	receivedWSAs 	0
scalar MyScenario.node[10].nic.phy80211p 	busyTime 	0
scalar MyScenario.node[10].nic.mac1609_4 	ReceivedUnicastPackets 	0
scalar MyScenario.node[10].nic.mac1609_4 	ReceivedBroadcasts 	0
scalar MyScenario.node[10].nic.mac1609_4 	SentPackets 	0
scalar MyScenario.node[10].nic.mac1609_4 	SNIRLostPackets 	0
scalar MyScenario.node[10].nic.mac1609_4 	RXTXLostPackets 	0
scalar MyScenario.node[10].nic.mac1609_4 	TotalLostPackets 	0
scalar MyScenario.node[10].nic.mac1609_4 	DroppedPacketsInMac 	0
scalar MyScenario.node[10].nic.mac1609_4 	TooLittleTime 	0
scalar MyScenario.node[10].nic.mac1609_4 	TimesIntoBackoff 	0
scalar MyScenario.node[10].nic.mac1609_4 	SlotsBackoff 	0
scalar MyScenario.node[10].nic.mac1609_4 	NumInternalContention 	0
scalar MyScenario.node[10].nic.mac1609_4 	totalBusyTime 	0
scalar MyScenario.node[10].veinsmobility 	startTime 	1
scalar MyScenario.node[10].veinsmobility 	totalTime 	63
scalar MyScenario.node[10].veinsmobility 	stopTime 	65
scalar MyScenario.node[10].veinsmobility 	minSpeed 	2.1120210360968
scalar MyScenario.node[10].veinsmobility 	maxSpeed 	13.840220928681
scalar MyScenario.node[10].veinsmobility 	totalDistance 	773.53856126059
scalar MyScenario.node[10].veinsmobility 	totalCO2Emission 	176.82819040244
scalar MyScenario.node[41].appl 	generatedWSMs 	1
scalar MyScenario.node[41].appl 	receivedWSMs 	19
scalar MyScenario.node[41].appl 	generatedBSMs 	0
scalar MyScenario.node[41].appl 	receivedBSMs 	0
scalar MyScenario.node[41].appl 	generatedWSAs 	0
scalar MyScenario.node[41].appl 	receivedWSAs 	0
scalar MyScenario.node[41].nic.phy80211p 	busyTime 	8.7e-05
scalar MyScenario.node[41].nic.mac1609_4 	ReceivedUnicastPackets 	0
scalar MyScenario.node[41].nic.mac1609_4 	ReceivedBroadcasts 	19
scalar MyScenario.node[41].nic.mac1609_4 	SentPackets 	1
scalar MyScenario.node[41].nic.mac1609_4 	SNIRLostPackets 	5
scalar MyScenario.node[41].nic.mac1609_4 	RXTXLostPackets 	9
scalar MyScenario.node[41].nic.mac1609_4 	TotalLostPackets 	14
scalar MyScenario.node[41].nic.mac1609_4 	DroppedPacketsInMac 	0
scalar MyScenario.node[41].nic.mac1609_4 	TooLittleTime 	0
scalar MyScenario.node[41].nic.mac1609_4 	TimesIntoBackoff 	1
scalar MyScenario.node[41].nic.mac1609_4 	SlotsBackoff 	1
scalar MyScenario.node[41].nic.mac1609_4 	NumInternalContention 	0
scalar MyScenario.node[41].nic.mac1609_4 	totalBusyTime 	0.005105103427
scalar MyScenario.node[41].veinsmobility 	startTime 	1
scalar MyScenario.node[41].veinsmobility 	totalTime 	63
scalar MyScenario.node[41].veinsmobility 	stopTime 	65
scalar MyScenario.node[41].veinsmobility 	minSpeed 	0.0066762460346377
scalar MyScenario.node[41].veinsmobility 	maxSpeed 	13.874055308965
scalar MyScenario.node[41].veinsmobility 	totalDistance 	660.29724430868
scalar MyScenario.node[41].veinsmobility 	totalCO2Emission 	193.07353975669
scalar MyScenario.node[36].appl 	generatedWSMs 	1
scalar MyScenario.node[36].appl 	receivedWSMs 	3
scalar MyScenario.node[36].appl 	generatedBSMs 	0
scalar MyScenario.node[36].appl 	receivedBSMs 	0
scalar MyScenario.node[36].appl 	generatedWSAs 	0
scalar MyScenario.node[36].appl 	receivedWSAs 	0
scalar MyScenario.node[36].nic.phy80211p 	busyTime 	1.8125e-05
scalar MyScenario.node[36].nic.mac1609_4 	ReceivedUnicastPackets 	0
scalar MyScenario.node[36].nic.mac1609_4 	ReceivedBroadcasts 	3
scalar MyScenario.node[36].nic.mac1609_4 	SentPackets 	1
scalar MyScenario.node[36].nic.mac1609_4 	SNIRLostPackets 	2
scalar MyScenario.node[36].nic.mac1609_4 	RXTXLostPackets 	1
scalar MyScenario.node[36].nic.mac1609_4 	TotalLostPackets 	3
scalar MyScenario.node[36].nic.mac1609_4 	DroppedPacketsInMac 	0
scalar MyScenario.node[36].nic.mac1609_4 	TooLittleTime 	0
scalar MyScenario.node[36].nic.mac1609_4 	TimesIntoBackoff 	1
scalar MyScenario.node[36].nic.mac1609_4 	SlotsBackoff 	2
scalar MyScenario.node[36].nic.mac1609_4 	NumInternalContention 	0
scalar MyScenario.node[36].nic.mac1609_4 	totalBusyTime 	0.001161
scalar MyScenario.node[36].veinsmobility 	startTime 	1
scalar MyScenario.node[36].veinsmobility 	totalTime 	63
scalar MyScenario.node[36].veinsmobility 	stopTime 	65
scalar MyScenario.node[36].veinsmobility 	minSpeed 	2.5425919303205
scalar MyScenario.node[36].veinsmobility 	maxSpeed 	13.773276685877
scalar MyScenario.node[36].veinsmobility 	totalDistance 	674.88985826712
scalar MyScenario.node[36].veinsmobility 	totalCO2Emission 	231.22002694268
scalar MyScenario.node[9].appl 	generatedWSMs 	1
scalar MyScenario.node[9].appl 	receivedWSMs 	3
scalar MyScenario.node[9].appl 	generatedBSMs 	0
scalar MyScenario.node[9].appl 	receivedBSMs 	0
scalar MyScenario.node[9].appl 	generatedWSAs 	0
scalar MyScenario.node[9].appl 	receivedWSAs 	0
scalar MyScenario.node[9].nic.phy80211p 	busyTime 	4.2181818181818e-05
scalar MyScenario.node[9].nic.mac1609_4 	ReceivedUnicastPackets 	0
scalar MyScenario.node[9].nic.mac1609_4 	ReceivedBroadcasts 	3
scalar MyScenario.node[9].nic.mac1609_4 	SentPackets 	1
scalar MyScenario.node[9].nic.mac1609_4 	SNIRLostPackets 	9
scalar MyScenario.node[9].nic.mac1609_4 	RXTXLostPackets 	5
scalar MyScenario.node[9].nic.mac1609_4 	TotalLostPackets 	14
scalar MyScenario.node[9].nic.mac1609_4 	DroppedPacketsInMac 	0
scalar MyScenario.node[9].nic.mac1609_4 	TooLittleTime 	0
scalar MyScenario.node[9].nic.mac1609_4 	TimesIntoBackoff 	1
scalar MyScenario.node[9].nic.mac1609_4 	SlotsBackoff 	2
scalar MyScenario.node[9].nic.mac1609_4 	NumInternalContention 	0
scalar MyScenario.node[9].nic.mac1609_4 	totalBusyTime 	0.001393
scalar MyScenario.node[9].veinsmobility 	startTime 	1
scalar MyScenario.node[9].veinsmobility 	totalTime 	65
scalar MyScenario.node[9].veinsmobility 	stopTime 	67
scalar MyScenario.node[9].veinsmobility 	minSpeed 	1.3714950017631
scalar MyScenario.node[9].veinsmobility 	maxSpeed 	13.88885069075
scalar MyScenario.node[9].veinsmobility 	totalDistance 	777.4312370792
scalar MyScenario.node[9].veinsmobility 	totalCO2Emission 	195.36027455569
scalar MyScenario.node[95].appl 	generatedWSMs 	1
scalar MyScenario.node[95].appl 	receivedWSMs 	8
scalar MyScenario.node[95].appl 	generatedBSMs 	0
scalar MyScenario.node[95].appl 	receivedBSMs 	0
scalar MyScenario.node[95].appl 	generatedWSAs 	0
scalar MyScenario.node[95].appl 	receivedWSAs 	0
scalar MyScenario.node[95].nic.phy80211p 	busyTime 	5.075e-05
scalar MyScenario.node[95].nic.mac1609_4 	ReceivedUnicastPackets 	0
scalar MyScenario.node[95].nic.mac1609_4 	ReceivedBroadcasts 	8
scalar MyScenario.node[95].nic.mac1609_4 	SentPackets 	1
scalar MyScenario.node[95].nic.mac1609_4 	SNIRLostPackets 	6
scalar MyScenario.node[95].nic.mac1609_4 	RXTXLostPackets 	2
scalar MyScenario.node[95].nic.mac1609_4 	TotalLostPackets 	8
scalar MyScenario.node[95].nic.mac1609_4 	DroppedPacketsInMac 	0
scalar MyScenario.node[95].nic.mac1609_4 	TooLittleTime 	0
scalar MyScenario.node[95].nic.mac1609_4 	TimesIntoBackoff 	1
scalar MyScenario.node[95].nic.mac1609_4 	SlotsBackoff 	3
scalar MyScenario.node[95].nic.mac1609_4 	NumInternalContention 	0
scalar MyScenario.node[95].nic.mac1609_4 	totalBusyTime 	0.002553
scalar MyScenario.node[95].veinsmobility 	startTime 	4
scalar MyScenario.node[95].veinsmobility 	totalTime 	63
scalar MyScenario.node[95].veinsmobility 	stopTime 	68
scalar MyScenario.node[95].veinsmobility 	minSpeed 	2.188840542431
scalar MyScenario.node[95].veinsmobility 	maxSpeed 	13.893458498502
scalar MyScenario.node[95].veinsmobility 	totalDistance 	765.30592691575
scalar MyScenario.node[95].veinsmobility 	totalCO2Emission 	188.21803936945
scalar MyScenario.node[80].appl 	generatedWSMs 	0
scalar MyScenario.node[80].appl 	receivedWSMs 	0
scalar MyScenario.node[80].appl 	generatedBSMs 	0
scalar MyScenario.node[80].appl 	receivedBSMs 	0
scalar MyScenario.node[80].appl 	generatedWSAs 	0
scalar MyScenario.node[80].appl 	receivedWSAs 	0
scalar MyScenario.node[80].nic.phy80211p 	busyTime 	6.9253731343284e-06
scalar MyScenario.node[80].nic.mac1609_4 	ReceivedUnicastPackets 	0
scalar MyScenario.node[80].nic.mac1609_4 	ReceivedBroadcasts 	0
scalar MyScenario.node[80].nic.mac1609_4 	SentPackets 	0
scalar MyScenario.node[80].nic.mac1609_4 	SNIRLostPackets 	2
scalar MyScenario.node[80].nic.mac1609_4 	RXTXLostPackets 	0
scalar MyScenario.node[80].nic.mac1609_4 	TotalLostPackets 	2
scalar MyScenario.node[80].nic.mac1609_4 	DroppedPacketsInMac 	0
scalar MyScenario.node[80].nic.mac1609_4 	TooLittleTime 	0
scalar MyScenario.node[80].nic.mac1609_4 	TimesIntoBackoff 	0
scalar MyScenario.node[80].nic.mac1609_4 	SlotsBackoff 	0
scalar MyScenario.node[80].nic.mac1609_4 	NumInternalContention 	0
scalar MyScenario.node[80].nic.mac1609_4 	totalBusyTime 	0.000464
scalar MyScenario.node[80].veinsmobility 	startTime 	1
scalar MyScenario.node[80].veinsmobility 	totalTime 	66
scalar MyScenario.node[80].veinsmobility 	stopTime 	68
scalar MyScenario.node[80].veinsmobility 	minSpeed 	2.5145775996149
scalar MyScenario.node[80].veinsmobility 	maxSpeed 	13.88627897969
scalar MyScenario.node[80].veinsmobility 	totalDistance 	773.63877588741
scalar MyScenario.node[80].veinsmobility 	totalCO2Emission 	206.10144629653
scalar MyScenario.node[24].appl 	generatedWSMs 	1
scalar MyScenario.node[24].appl 	receivedWSMs 	10
scalar MyScenario.node[24].appl 	generatedBSMs 	0
scalar MyScenario.node[24].appl 	receivedBSMs 	0
scalar MyScenario.node[24].appl 	generatedWSAs 	0
scalar MyScenario.node[24].appl 	receivedWSAs 	0
scalar MyScenario.node[24].nic.phy80211p 	busyTime 	6.1411764705882e-05
scalar MyScenario.node[24].nic.mac1609_4 	ReceivedUnicastPackets 	0
scalar MyScenario.node[24].nic.mac1609_4 	ReceivedBroadcasts 	10
scalar MyScenario.node[24].nic.mac1609_4 	SentPackets 	1
scalar MyScenario.node[24].nic.mac1609_4 	SNIRLostPackets 	8
scalar MyScenario.node[24].nic.mac1609_4 	RXTXLostPackets 	2
scalar MyScenario.node[24].nic.mac1609_4 	TotalLostPackets 	10
scalar MyScenario.node[24].nic.mac1609_4 	DroppedPacketsInMac 	0
scalar MyScenario.node[24].nic.mac1609_4 	TooLittleTime 	0
scalar MyScenario.node[24].nic.mac1609_4 	TimesIntoBackoff 	1
scalar MyScenario.node[24].nic.mac1609_4 	SlotsBackoff 	3
scalar MyScenario.node[24].nic.mac1609_4 	NumInternalContention 	0
scalar MyScenario.node[24].nic.mac1609_4 	totalBusyTime 	0.003481
scalar MyScenario.node[24].veinsmobility 	startTime 	1
scalar MyScenario.node[24].veinsmobility 	totalTime 	67
scalar MyScenario.node[24].veinsmobility 	stopTime 	69
scalar MyScenario.node[24].veinsmobility 	minSpeed 	1.8037170538446
scalar MyScenario.node[24].veinsmobility 	maxSpeed 	13.80405137497
scalar MyScenario.node[24].veinsmobility 	totalDistance 	765.93136702857
scalar MyScenario.node[24].veinsmobility 	totalCO2Emission 	214.59897567516
scalar MyScenario.node[64].appl 	generatedWSMs 	0
scalar MyScenario.node[64].appl 	receivedWSMs 	0
scalar MyScenario.node[64].appl 	generatedBSMs 	0
scalar MyScenario.node[64].appl 	receivedBSMs 	0
scalar MyScenario.node[64].appl 	generatedWSAs 	0
scalar MyScenario.node[64].appl 	receivedWSAs 	0
scalar MyScenario.node[64].nic.phy80211p 	busyTime 	0
scalar MyScenario.node[64].nic.mac1609_4 	ReceivedUnicastPackets 	0
scalar MyScenario.node[64].nic.mac1609_4 	ReceivedBroadcasts 	0
scalar MyScenario.node[64].nic.mac1609_4 	SentPackets 	0
scalar MyScenario.node[64].nic.mac1609_4 	SNIRLostPackets 	0
scalar MyScenario.node[64].nic.mac1609_4 	RXTXLostPackets 	0
scalar MyScenario.node[64].nic.mac1609_4 	TotalLostPackets 	0
scalar MyScenario.node[64].nic.mac1609_4 	DroppedPacketsInMac 	0
scalar MyScenario.node[64].nic.mac1609_4 	TooLittleTime 	0
scalar MyScenario.node[64].nic.mac1609_4 	TimesIntoBackoff 	0
scalar MyScenario.node[64].nic.mac1609_4 	SlotsBackoff 	0
scalar MyScenario.node[64].nic.mac1609_4 	NumInternalContention 	0
scalar MyScenario.node[64].nic.mac1609_4 	totalBusyTime 	0
scalar MyScenario.node[64].veinsmobility 	startTime 	1
scalar MyScenario.node[64].veinsmobility 	totalTime 	67
scalar MyScenario.node[64].veinsmobility 	stopTime 	69
scalar MyScenario.node[64].veinsmobility 	minSpeed 	2.2866498133633
scalar MyScenario.node[64].veinsmobility 	maxSpeed 	13.880192135694
scalar MyScenario.node[64].veinsmobility 	totalDistance 	755.8177523764
scalar MyScenario.node[64].veinsmobility 	totalCO2Emission 	219.58599623873
scalar MyScenario.node[5].appl 	generatedWSMs 	1
scalar MyScenario.node[5].appl 	receivedWSMs 	1
scalar MyScenario.node[5].appl 	generatedBSMs 	0
scalar MyScenario.node[5].appl 	receivedBSMs 	0
scalar MyScenario.node[5].appl 	generatedWSAs 	0
scalar MyScenario.node[5].appl 	receivedWSAs 	0
scalar MyScenario.node[5].nic.phy80211p 	busyTime 	1.6571428571429e-05
scalar MyScenario.node[5].nic.mac1609_4 	ReceivedUnicastPackets 	0
scalar MyScenario.node[5].nic.mac1609_4 	ReceivedBroadcasts 	1
scalar MyScenario.node[5].nic.mac1609_4 	SentPackets 	1
scalar MyScenario.node[5].nic.mac1609_4 	SNIRLostPackets 	4
scalar MyScenario.node[5].nic.mac1609_4 	RXTXLostPackets 	0
scalar MyScenario.node[5].nic.mac1609_4 	TotalLostPackets 	4
scalar MyScenario.node[5].nic.mac1609_4 	DroppedPacketsInMac 	0
scalar MyScenario.node[5].nic.mac1609_4 	TooLittleTime 	0
scalar MyScenario.node[5].nic.mac1609_4 	TimesIntoBackoff 	1
scalar MyScenario.node[5].nic.mac1609_4 	SlotsBackoff 	1
scalar MyScenario.node[5].nic.mac1609_4 	NumInternalContention 	0
scalar MyScenario.node[5].nic.mac1609_4 	totalBusyTime 	0.000929
scalar MyScenario.node[5].veinsmobility 	startTime 	1
scalar MyScenario.node[5].veinsmobility 	totalTime 	69
scalar MyScenario.node[5].veinsmobility 	stopTime 	71
scalar MyScenario.node[5].veinsmobility 	minSpeed 	2.3748849533033
scalar MyScenario.node[5].veinsmobility 	maxSpeed 	13.898863867624
scalar MyScenario.node[5].veinsmobility 	totalDistance 	858.07690168058
scalar MyScenario.node[5].veinsmobility 	totalCO2Emission 	190.19332706419
scalar MyScenario.node[2].appl 	generatedWSMs 	1
scalar MyScenario.node[2].appl 	receivedWSMs 	4
scalar MyScenario.node[2].appl 	generatedBSMs 	0
scalar MyScenario.node[2].appl 	receivedBSMs 	0
scalar MyScenario.node[2].appl 	generatedWSAs 	0
scalar MyScenario.node[2].appl 	receivedWSAs 	0
scalar MyScenario.node[2].nic.phy80211p 	busyTime 	4.64e-05
scalar MyScenario.node[2].nic.mac1609_4 	ReceivedUnicastPackets 	0
scalar MyScenario.node[2].nic.mac1609_4 	ReceivedBroadcasts 	4
scalar MyScenario.node[2].nic.mac1609_4 	SentPackets 	1
scalar MyScenario.node[2].nic.mac1609_4 	SNIRLostPackets 	10
scalar MyScenario.node[2].nic.mac1609_4 	RXTXLostPackets 	0
scalar MyScenario.node[2].nic.mac1609_4 	TotalLostPackets 	10
scalar MyScenario.node[2].nic.mac1609_4 	DroppedPacketsInMac 	0
scalar MyScenario.node[2].nic.mac1609_4 	TooLittleTime 	0
scalar MyScenario.node[2].nic.mac1609_4 	TimesIntoBackoff 	1
scalar MyScenario.node[2].nic.mac1609_4 	SlotsBackoff 	1
scalar MyScenario.node[2].nic.mac1609_4 	NumInternalContention 	0
scalar MyScenario.node[2].nic.mac1609_4 	totalBusyTime 	0.001625
scalar MyScenario.node[2].veinsmobility 	startTime 	1
scalar MyScenario.node[2].veinsmobility 	totalTime 	69
scalar MyScenario.node[2].veinsmobility 	stopTime 	71
scalar MyScenario.node[2].veinsmobility 	minSpeed 	2.0907039459562
scalar MyScenario.node[2].veinsmobility 	maxSpeed 	13.873874704749
scalar MyScenario.node[2].veinsmobility 	totalDistance 	773.1075598703
scalar MyScenario.node[2].veinsmobility 	totalCO2Emission 	236.87892838899
scalar MyScenario.node[48].appl 	generatedWSMs 	1
scalar MyScenario.node[48].appl 	receivedWSMs 	1
scalar MyScenario.node[48].appl 	generatedBSMs 	0
scalar MyScenario.node[48].appl 	receivedBSMs 	0
scalar MyScenario.node[48].appl 	generatedWSAs 	0
scalar MyScenario.node[48].appl 	receivedWSAs 	0
scalar MyScenario.node[48].nic.phy80211p 	busyTime 	1.9605633802817e-05
scalar MyScenario.node[48].nic.mac1609_4 	ReceivedUnicastPackets 	0
scalar MyScenario.node[48].nic.mac1609_4 	ReceivedBroadcasts 	1
scalar MyScenario.node[48].nic.mac1609_4 	SentPackets 	1
scalar MyScenario.node[48].nic.mac1609_4 	SNIRLostPackets 	5
scalar MyScenario.node[48].nic.mac1609_4 	RXTXLostPackets 	1
scalar MyScenario.node[48].nic.mac1609_4 	TotalLostPackets 	6
scalar MyScenario.node[48].nic.mac1609_4 	DroppedPacketsInMac 	0
scalar MyScenario.node[48].nic.mac1609_4 	TooLittleTime 	0
scalar MyScenario.node[48].nic.mac1609_4 	TimesIntoBackoff 	1
scalar MyScenario.node[48].nic.mac1609_4 	SlotsBackoff 	2
scalar MyScenario.node[48].nic.mac1609_4 	NumInternalContention 	0
scalar MyScenario.node[48].nic.mac1609_4 	totalBusyTime 	0.000929
scalar MyScenario.node[48].veinsmobility 	startTime 	1
scalar MyScenario.node[48].veinsmobility 	totalTime 	70
scalar MyScenario.node[48].veinsmobility 	stopTime 	72
scalar MyScenario.node[48].veinsmobility 	minSpeed 	1.4743524184683
[...]
scalar MyScenario.node[85].nic.phy80211p 	busyTime 	2.1682242990654e-06
scalar MyScenario.node[85].nic.mac1609_4 	ReceivedUnicastPackets 	0
scalar MyScenario.node[85].nic.mac1609_4 	ReceivedBroadcasts 	0
scalar MyScenario.node[85].nic.mac1609_4 	SentPackets 	0
scalar MyScenario.node[85].nic.mac1609_4 	SNIRLostPackets 	1
scalar MyScenario.node[85].nic.mac1609_4 	RXTXLostPackets 	0
scalar MyScenario.node[85].nic.mac1609_4 	TotalLostPackets 	1
scalar MyScenario.node[85].nic.mac1609_4 	DroppedPacketsInMac 	0
scalar MyScenario.node[85].nic.mac1609_4 	TooLittleTime 	0
scalar MyScenario.node[85].nic.mac1609_4 	TimesIntoBackoff 	0
scalar MyScenario.node[85].nic.mac1609_4 	SlotsBackoff 	0
scalar MyScenario.node[85].nic.mac1609_4 	NumInternalContention 	0
scalar MyScenario.node[85].nic.mac1609_4 	totalBusyTime 	0.000232
scalar MyScenario.node[85].veinsmobility 	startTime 	1
scalar MyScenario.node[85].veinsmobility 	totalTime 	106
scalar MyScenario.node[85].veinsmobility 	stopTime 	108
scalar MyScenario.node[85].veinsmobility 	minSpeed 	0.21101472203305
scalar MyScenario.node[85].veinsmobility 	maxSpeed 	13.869724868238
scalar MyScenario.node[85].veinsmobility 	totalDistance 	1172.27833021
scalar MyScenario.node[85].veinsmobility 	totalCO2Emission 	359.83899488578
scalar MyScenario.node[57].appl 	generatedWSMs 	0
scalar MyScenario.node[57].appl 	receivedWSMs 	0
scalar MyScenario.node[57].appl 	generatedBSMs 	0
scalar MyScenario.node[57].appl 	receivedBSMs 	0
scalar MyScenario.node[57].appl 	generatedWSAs 	0
scalar MyScenario.node[57].appl 	receivedWSAs 	0
scalar MyScenario.node[57].nic.phy80211p 	busyTime 	4.3364485981308e-06
scalar MyScenario.node[57].nic.mac1609_4 	ReceivedUnicastPackets 	0
scalar MyScenario.node[57].nic.mac1609_4 	ReceivedBroadcasts 	0
scalar MyScenario.node[57].nic.mac1609_4 	SentPackets 	0
scalar MyScenario.node[57].nic.mac1609_4 	SNIRLostPackets 	2
scalar MyScenario.node[57].nic.mac1609_4 	RXTXLostPackets 	0
scalar MyScenario.node[57].nic.mac1609_4 	TotalLostPackets 	2
scalar MyScenario.node[57].nic.mac1609_4 	DroppedPacketsInMac 	0
scalar MyScenario.node[57].nic.mac1609_4 	TooLittleTime 	0
scalar MyScenario.node[57].nic.mac1609_4 	TimesIntoBackoff 	0
scalar MyScenario.node[57].nic.mac1609_4 	SlotsBackoff 	0
scalar MyScenario.node[57].nic.mac1609_4 	NumInternalContention 	0
scalar MyScenario.node[57].nic.mac1609_4 	totalBusyTime 	0.000232
scalar MyScenario.node[57].veinsmobility 	startTime 	1
scalar MyScenario.node[57].veinsmobility 	totalTime 	106
scalar MyScenario.node[57].veinsmobility 	stopTime 	108
scalar MyScenario.node[57].veinsmobility 	minSpeed 	2.3026085287565
scalar MyScenario.node[57].veinsmobility 	maxSpeed 	13.834272083687
scalar MyScenario.node[57].veinsmobility 	totalDistance 	1269.2904284608
scalar MyScenario.node[57].veinsmobility 	totalCO2Emission 	328.45502455611
scalar MyScenario.node[62].appl 	generatedWSMs 	0
scalar MyScenario.node[62].appl 	receivedWSMs 	0
scalar MyScenario.node[62].appl 	generatedBSMs 	0
scalar MyScenario.node[62].appl 	receivedBSMs 	0
scalar MyScenario.node[62].appl 	generatedWSAs 	0
scalar MyScenario.node[62].appl 	receivedWSAs 	0
scalar MyScenario.node[62].nic.phy80211p 	busyTime 	0
scalar MyScenario.node[62].nic.mac1609_4 	ReceivedUnicastPackets 	0
scalar MyScenario.node[62].nic.mac1609_4 	ReceivedBroadcasts 	0
scalar MyScenario.node[62].nic.mac1609_4 	SentPackets 	0
scalar MyScenario.node[62].nic.mac1609_4 	SNIRLostPackets 	0
scalar MyScenario.node[62].nic.mac1609_4 	RXTXLostPackets 	0
scalar MyScenario.node[62].nic.mac1609_4 	TotalLostPackets 	0
scalar MyScenario.node[62].nic.mac1609_4 	DroppedPacketsInMac 	0
scalar MyScenario.node[62].nic.mac1609_4 	TooLittleTime 	0
scalar MyScenario.node[62].nic.mac1609_4 	TimesIntoBackoff 	0
scalar MyScenario.node[62].nic.mac1609_4 	SlotsBackoff 	0
scalar MyScenario.node[62].nic.mac1609_4 	NumInternalContention 	0
scalar MyScenario.node[62].nic.mac1609_4 	totalBusyTime 	0
scalar MyScenario.node[62].veinsmobility 	startTime 	1
scalar MyScenario.node[62].veinsmobility 	totalTime 	106
scalar MyScenario.node[62].veinsmobility 	stopTime 	108
scalar MyScenario.node[62].veinsmobility 	minSpeed 	1.9467070204439
scalar MyScenario.node[62].veinsmobility 	maxSpeed 	13.842233440559
scalar MyScenario.node[62].veinsmobility 	totalDistance 	1267.7725325199
scalar MyScenario.node[62].veinsmobility 	totalCO2Emission 	320.56899398685
scalar MyScenario.node[63].appl 	generatedWSMs 	1
scalar MyScenario.node[63].appl 	receivedWSMs 	9
scalar MyScenario.node[63].appl 	generatedBSMs 	0
scalar MyScenario.node[63].appl 	receivedBSMs 	0
scalar MyScenario.node[63].appl 	generatedWSAs 	0
scalar MyScenario.node[63].appl 	receivedWSAs 	0
scalar MyScenario.node[63].nic.phy80211p 	busyTime 	2.385046728972e-05
scalar MyScenario.node[63].nic.mac1609_4 	ReceivedUnicastPackets 	0
scalar MyScenario.node[63].nic.mac1609_4 	ReceivedBroadcasts 	9
scalar MyScenario.node[63].nic.mac1609_4 	SentPackets 	1
scalar MyScenario.node[63].nic.mac1609_4 	SNIRLostPackets 	2
scalar MyScenario.node[63].nic.mac1609_4 	RXTXLostPackets 	10
scalar MyScenario.node[63].nic.mac1609_4 	TotalLostPackets 	12
scalar MyScenario.node[63].nic.mac1609_4 	DroppedPacketsInMac 	0
scalar MyScenario.node[63].nic.mac1609_4 	TooLittleTime 	0
scalar MyScenario.node[63].nic.mac1609_4 	TimesIntoBackoff 	1
scalar MyScenario.node[63].nic.mac1609_4 	SlotsBackoff 	1
scalar MyScenario.node[63].nic.mac1609_4 	NumInternalContention 	0
scalar MyScenario.node[63].nic.mac1609_4 	totalBusyTime 	0.002553093155
scalar MyScenario.node[63].veinsmobility 	startTime 	1
scalar MyScenario.node[63].veinsmobility 	totalTime 	106
scalar MyScenario.node[63].veinsmobility 	stopTime 	108
scalar MyScenario.node[63].veinsmobility 	minSpeed 	1.4269902210059
scalar MyScenario.node[63].veinsmobility 	maxSpeed 	13.871216796525
scalar MyScenario.node[63].veinsmobility 	totalDistance 	1283.6845193875
scalar MyScenario.node[63].veinsmobility 	totalCO2Emission 	300.0223492517
scalar MyScenario.node[84].appl 	generatedWSMs 	0
scalar MyScenario.node[84].appl 	receivedWSMs 	0
scalar MyScenario.node[84].appl 	generatedBSMs 	0
scalar MyScenario.node[84].appl 	receivedBSMs 	0
scalar MyScenario.node[84].appl 	generatedWSAs 	0
scalar MyScenario.node[84].appl 	receivedWSAs 	0
scalar MyScenario.node[84].nic.phy80211p 	busyTime 	4e-06
scalar MyScenario.node[84].nic.mac1609_4 	ReceivedUnicastPackets 	0
scalar MyScenario.node[84].nic.mac1609_4 	ReceivedBroadcasts 	0
scalar MyScenario.node[84].nic.mac1609_4 	SentPackets 	0
scalar MyScenario.node[84].nic.mac1609_4 	SNIRLostPackets 	2
scalar MyScenario.node[84].nic.mac1609_4 	RXTXLostPackets 	0
scalar MyScenario.node[84].nic.mac1609_4 	TotalLostPackets 	2
scalar MyScenario.node[84].nic.mac1609_4 	DroppedPacketsInMac 	0
scalar MyScenario.node[84].nic.mac1609_4 	TooLittleTime 	0
scalar MyScenario.node[84].nic.mac1609_4 	TimesIntoBackoff 	0
scalar MyScenario.node[84].nic.mac1609_4 	SlotsBackoff 	0
scalar MyScenario.node[84].nic.mac1609_4 	NumInternalContention 	0
scalar MyScenario.node[84].nic.mac1609_4 	totalBusyTime 	0.000232
scalar MyScenario.node[84].veinsmobility 	startTime 	1
scalar MyScenario.node[84].veinsmobility 	totalTime 	115
scalar MyScenario.node[84].veinsmobility 	stopTime 	117
scalar MyScenario.node[84].veinsmobility 	minSpeed 	0.095228318642132
scalar MyScenario.node[84].veinsmobility 	maxSpeed 	13.869683872373
scalar MyScenario.node[84].veinsmobility 	totalDistance 	1273.4751660939
scalar MyScenario.node[84].veinsmobility 	totalCO2Emission 	350.61793652937
scalar MyScenario.node[96].appl 	generatedWSMs 	0
scalar MyScenario.node[96].appl 	receivedWSMs 	0
scalar MyScenario.node[96].appl 	generatedBSMs 	0
scalar MyScenario.node[96].appl 	receivedBSMs 	0
scalar MyScenario.node[96].appl 	generatedWSAs 	0
scalar MyScenario.node[96].appl 	receivedWSAs 	0
scalar MyScenario.node[96].nic.phy80211p 	busyTime 	0
scalar MyScenario.node[96].nic.mac1609_4 	ReceivedUnicastPackets 	0
scalar MyScenario.node[96].nic.mac1609_4 	ReceivedBroadcasts 	0
scalar MyScenario.node[96].nic.mac1609_4 	SentPackets 	0
scalar MyScenario.node[96].nic.mac1609_4 	SNIRLostPackets 	0
scalar MyScenario.node[96].nic.mac1609_4 	RXTXLostPackets 	0
scalar MyScenario.node[96].nic.mac1609_4 	TotalLostPackets 	0
scalar MyScenario.node[96].nic.mac1609_4 	DroppedPacketsInMac 	0
scalar MyScenario.node[96].nic.mac1609_4 	TooLittleTime 	0
scalar MyScenario.node[96].nic.mac1609_4 	TimesIntoBackoff 	0
scalar MyScenario.node[96].nic.mac1609_4 	SlotsBackoff 	0
scalar MyScenario.node[96].nic.mac1609_4 	NumInternalContention 	0
scalar MyScenario.node[96].nic.mac1609_4 	totalBusyTime 	0
scalar MyScenario.node[96].veinsmobility 	startTime 	4
scalar MyScenario.node[96].veinsmobility 	totalTime 	115
scalar MyScenario.node[96].veinsmobility 	stopTime 	120
scalar MyScenario.node[96].veinsmobility 	minSpeed 	0.1243492637723
scalar MyScenario.node[96].veinsmobility 	maxSpeed 	13.898557774466
scalar MyScenario.node[96].veinsmobility 	totalDistance 	1267.3658586274
scalar MyScenario.node[96].veinsmobility 	totalCO2Emission 	373.67252200991
scalar MyScenario.node[26].appl 	generatedWSMs 	0
scalar MyScenario.node[26].appl 	receivedWSMs 	0
scalar MyScenario.node[26].appl 	generatedBSMs 	0
scalar MyScenario.node[26].appl 	receivedBSMs 	0
scalar MyScenario.node[26].appl 	generatedWSAs 	0
scalar MyScenario.node[26].appl 	receivedWSAs 	0
scalar MyScenario.node[26].nic.phy80211p 	busyTime 	3.8032786885246e-06
scalar MyScenario.node[26].nic.mac1609_4 	ReceivedUnicastPackets 	0
scalar MyScenario.node[26].nic.mac1609_4 	ReceivedBroadcasts 	0
scalar MyScenario.node[26].nic.mac1609_4 	SentPackets 	0
scalar MyScenario.node[26].nic.mac1609_4 	SNIRLostPackets 	2
scalar MyScenario.node[26].nic.mac1609_4 	RXTXLostPackets 	0
scalar MyScenario.node[26].nic.mac1609_4 	TotalLostPackets 	2
scalar MyScenario.node[26].nic.mac1609_4 	DroppedPacketsInMac 	0
scalar MyScenario.node[26].nic.mac1609_4 	TooLittleTime 	0
scalar MyScenario.node[26].nic.mac1609_4 	TimesIntoBackoff 	0
scalar MyScenario.node[26].nic.mac1609_4 	SlotsBackoff 	0
scalar MyScenario.node[26].nic.mac1609_4 	NumInternalContention 	0
scalar MyScenario.node[26].nic.mac1609_4 	totalBusyTime 	0.000232
scalar MyScenario.node[26].veinsmobility 	startTime 	1
scalar MyScenario.node[26].veinsmobility 	totalTime 	121
scalar MyScenario.node[26].veinsmobility 	stopTime 	123
scalar MyScenario.node[26].veinsmobility 	minSpeed 	1.7552533528302
scalar MyScenario.node[26].veinsmobility 	maxSpeed 	13.875322759594
scalar MyScenario.node[26].veinsmobility 	totalDistance 	1384.3633771267
scalar MyScenario.node[26].veinsmobility 	totalCO2Emission 	377.82751237364
scalar MyScenario.node[73].appl 	generatedWSMs 	1
scalar MyScenario.node[73].appl 	receivedWSMs 	2
scalar MyScenario.node[73].appl 	generatedBSMs 	0
scalar MyScenario.node[73].appl 	receivedBSMs 	0
scalar MyScenario.node[73].appl 	generatedWSAs 	0
scalar MyScenario.node[73].appl 	receivedWSAs 	0
scalar MyScenario.node[73].nic.phy80211p 	busyTime 	1.4848e-05
scalar MyScenario.node[73].nic.mac1609_4 	ReceivedUnicastPackets 	0
scalar MyScenario.node[73].nic.mac1609_4 	ReceivedBroadcasts 	2
scalar MyScenario.node[73].nic.mac1609_4 	SentPackets 	1
scalar MyScenario.node[73].nic.mac1609_4 	SNIRLostPackets 	6
scalar MyScenario.node[73].nic.mac1609_4 	RXTXLostPackets 	5
scalar MyScenario.node[73].nic.mac1609_4 	TotalLostPackets 	11
scalar MyScenario.node[73].nic.mac1609_4 	DroppedPacketsInMac 	0
scalar MyScenario.node[73].nic.mac1609_4 	TooLittleTime 	0
scalar MyScenario.node[73].nic.mac1609_4 	TimesIntoBackoff 	1
scalar MyScenario.node[73].nic.mac1609_4 	SlotsBackoff 	0
scalar MyScenario.node[73].nic.mac1609_4 	NumInternalContention 	0
scalar MyScenario.node[73].nic.mac1609_4 	totalBusyTime 	0.001161
scalar MyScenario.node[73].veinsmobility 	startTime 	1
scalar MyScenario.node[73].veinsmobility 	totalTime 	124
scalar MyScenario.node[73].veinsmobility 	stopTime 	126
scalar MyScenario.node[73].veinsmobility 	minSpeed 	2.1300547561608
scalar MyScenario.node[73].veinsmobility 	maxSpeed 	13.873497467302
scalar MyScenario.node[73].veinsmobility 	totalDistance 	1466.3225622979
scalar MyScenario.node[73].veinsmobility 	totalCO2Emission 	393.27086911004
scalar MyScenario.node[99].appl 	generatedWSMs 	0
scalar MyScenario.node[99].appl 	receivedWSMs 	0
scalar MyScenario.node[99].appl 	generatedBSMs 	0
scalar MyScenario.node[99].appl 	receivedBSMs 	0
scalar MyScenario.node[99].appl 	generatedWSAs 	0
scalar MyScenario.node[99].appl 	receivedWSAs 	0
scalar MyScenario.node[99].nic.phy80211p 	busyTime 	3.8666666666667e-06
scalar MyScenario.node[99].nic.mac1609_4 	ReceivedUnicastPackets 	0
scalar MyScenario.node[99].nic.mac1609_4 	ReceivedBroadcasts 	0
scalar MyScenario.node[99].nic.mac1609_4 	SentPackets 	0
scalar MyScenario.node[99].nic.mac1609_4 	SNIRLostPackets 	2
scalar MyScenario.node[99].nic.mac1609_4 	RXTXLostPackets 	0
scalar MyScenario.node[99].nic.mac1609_4 	TotalLostPackets 	2
scalar MyScenario.node[99].nic.mac1609_4 	DroppedPacketsInMac 	0
scalar MyScenario.node[99].nic.mac1609_4 	TooLittleTime 	0
scalar MyScenario.node[99].nic.mac1609_4 	TimesIntoBackoff 	0
scalar MyScenario.node[99].nic.mac1609_4 	SlotsBackoff 	0
scalar MyScenario.node[99].nic.mac1609_4 	NumInternalContention 	0
scalar MyScenario.node[99].nic.mac1609_4 	totalBusyTime 	0.000232
scalar MyScenario.node[99].veinsmobility 	startTime 	7
scalar MyScenario.node[99].veinsmobility 	totalTime 	119
scalar MyScenario.node[99].veinsmobility 	stopTime 	127
scalar MyScenario.node[99].veinsmobility 	minSpeed 	0.00096431554085018
scalar MyScenario.node[99].veinsmobility 	maxSpeed 	13.892213491281
scalar MyScenario.node[99].veinsmobility 	totalDistance 	1269.0309732006
scalar MyScenario.node[99].veinsmobility 	totalCO2Emission 	390.50084187158
scalar MyScenario.node[6].appl 	generatedWSMs 	1
scalar MyScenario.node[6].appl 	receivedWSMs 	1
scalar MyScenario.node[6].appl 	generatedBSMs 	0
scalar MyScenario.node[6].appl 	receivedBSMs 	0
scalar MyScenario.node[6].appl 	generatedWSAs 	0
scalar MyScenario.node[6].appl 	receivedWSAs 	0
scalar MyScenario.node[6].nic.phy80211p 	busyTime 	1.7984496124031e-06
scalar MyScenario.node[6].nic.mac1609_4 	ReceivedUnicastPackets 	0
scalar MyScenario.node[6].nic.mac1609_4 	ReceivedBroadcasts 	1
scalar MyScenario.node[6].nic.mac1609_4 	SentPackets 	1
scalar MyScenario.node[6].nic.mac1609_4 	SNIRLostPackets 	0
scalar MyScenario.node[6].nic.mac1609_4 	RXTXLostPackets 	2
scalar MyScenario.node[6].nic.mac1609_4 	TotalLostPackets 	2
scalar MyScenario.node[6].nic.mac1609_4 	DroppedPacketsInMac 	0
scalar MyScenario.node[6].nic.mac1609_4 	TooLittleTime 	0
scalar MyScenario.node[6].nic.mac1609_4 	TimesIntoBackoff 	1
scalar MyScenario.node[6].nic.mac1609_4 	SlotsBackoff 	0
scalar MyScenario.node[6].nic.mac1609_4 	NumInternalContention 	0
scalar MyScenario.node[6].nic.mac1609_4 	totalBusyTime 	0.000465
scalar MyScenario.node[6].veinsmobility 	startTime 	1
scalar MyScenario.node[6].veinsmobility 	totalTime 	128
scalar MyScenario.node[6].veinsmobility 	stopTime 	130
scalar MyScenario.node[6].veinsmobility 	minSpeed 	1.3663295009639
scalar MyScenario.node[6].veinsmobility 	maxSpeed 	13.896368908905
scalar MyScenario.node[6].veinsmobility 	totalDistance 	1565.5860783869
scalar MyScenario.node[6].veinsmobility 	totalCO2Emission 	378.89890262563
scalar MyScenario.node[4].appl 	generatedWSMs 	0
scalar MyScenario.node[4].appl 	receivedWSMs 	0
scalar MyScenario.node[4].appl 	generatedBSMs 	0
scalar MyScenario.node[4].appl 	receivedBSMs 	0
scalar MyScenario.node[4].appl 	generatedWSAs 	0
scalar MyScenario.node[4].appl 	receivedWSAs 	0
scalar MyScenario.node[4].nic.phy80211p 	busyTime 	0
scalar MyScenario.node[4].nic.mac1609_4 	ReceivedUnicastPackets 	0
scalar MyScenario.node[4].nic.mac1609_4 	ReceivedBroadcasts 	0
scalar MyScenario.node[4].nic.mac1609_4 	SentPackets 	0
scalar MyScenario.node[4].nic.mac1609_4 	SNIRLostPackets 	0
scalar MyScenario.node[4].nic.mac1609_4 	RXTXLostPackets 	0
scalar MyScenario.node[4].nic.mac1609_4 	TotalLostPackets 	0
scalar MyScenario.node[4].nic.mac1609_4 	DroppedPacketsInMac 	0
scalar MyScenario.node[4].nic.mac1609_4 	TooLittleTime 	0
scalar MyScenario.node[4].nic.mac1609_4 	TimesIntoBackoff 	0
scalar MyScenario.node[4].nic.mac1609_4 	SlotsBackoff 	0
scalar MyScenario.node[4].nic.mac1609_4 	NumInternalContention 	0
scalar MyScenario.node[4].nic.mac1609_4 	totalBusyTime 	0
scalar MyScenario.node[4].veinsmobility 	startTime 	1
scalar MyScenario.node[4].veinsmobility 	totalTime 	132
scalar MyScenario.node[4].veinsmobility 	stopTime 	134
scalar MyScenario.node[4].veinsmobility 	minSpeed 	0.0031572068836124
scalar MyScenario.node[4].veinsmobility 	maxSpeed 	13.882517670584
scalar MyScenario.node[4].veinsmobility 	totalDistance 	1363.6678670373
scalar MyScenario.node[4].veinsmobility 	totalCO2Emission 	433.14717202833
scalar MyScenario.node[20].appl 	generatedWSMs 	0
scalar MyScenario.node[20].appl 	receivedWSMs 	0
scalar MyScenario.node[20].appl 	generatedBSMs 	0
scalar MyScenario.node[20].appl 	receivedBSMs 	0
scalar MyScenario.node[20].appl 	generatedWSAs 	0
scalar MyScenario.node[20].appl 	receivedWSAs 	0
scalar MyScenario.node[20].nic.phy80211p 	busyTime 	0
scalar MyScenario.node[20].nic.mac1609_4 	ReceivedUnicastPackets 	0
scalar MyScenario.node[20].nic.mac1609_4 	ReceivedBroadcasts 	0
scalar MyScenario.node[20].nic.mac1609_4 	SentPackets 	0
scalar MyScenario.node[20].nic.mac1609_4 	SNIRLostPackets 	0
scalar MyScenario.node[20].nic.mac1609_4 	RXTXLostPackets 	0
scalar MyScenario.node[20].nic.mac1609_4 	TotalLostPackets 	0
scalar MyScenario.node[20].nic.mac1609_4 	DroppedPacketsInMac 	0
scalar MyScenario.node[20].nic.mac1609_4 	TooLittleTime 	0
scalar MyScenario.node[20].nic.mac1609_4 	TimesIntoBackoff 	0
scalar MyScenario.node[20].nic.mac1609_4 	SlotsBackoff 	0
scalar MyScenario.node[20].nic.mac1609_4 	NumInternalContention 	0
scalar MyScenario.node[20].nic.mac1609_4 	totalBusyTime 	0
scalar MyScenario.node[20].veinsmobility 	startTime 	1
scalar MyScenario.node[20].veinsmobility 	totalTime 	139
scalar MyScenario.node[20].veinsmobility 	stopTime 	141
scalar MyScenario.node[20].veinsmobility 	minSpeed 	1.543001735545
scalar MyScenario.node[20].veinsmobility 	maxSpeed 	13.87815468784
scalar MyScenario.node[20].veinsmobility 	totalDistance 	1580.5574900352
scalar MyScenario.node[20].veinsmobility 	totalCO2Emission 	431.17277607992
scalar MyScenario.node[75].appl 	generatedWSMs 	0
scalar MyScenario.node[75].appl 	receivedWSMs 	0
scalar MyScenario.node[75].appl 	generatedBSMs 	0
scalar MyScenario.node[75].appl 	receivedBSMs 	0
scalar MyScenario.node[75].appl 	generatedWSAs 	0
scalar MyScenario.node[75].appl 	receivedWSAs 	0
scalar MyScenario.node[75].nic.phy80211p 	busyTime 	0
scalar MyScenario.node[75].nic.mac1609_4 	ReceivedUnicastPackets 	0
scalar MyScenario.node[75].nic.mac1609_4 	ReceivedBroadcasts 	0
scalar MyScenario.node[75].nic.mac1609_4 	SentPackets 	0
scalar MyScenario.node[75].nic.mac1609_4 	SNIRLostPackets 	0
scalar MyScenario.node[75].nic.mac1609_4 	RXTXLostPackets 	0
scalar MyScenario.node[75].nic.mac1609_4 	TotalLostPackets 	0
scalar MyScenario.node[75].nic.mac1609_4 	DroppedPacketsInMac 	0
scalar MyScenario.node[75].nic.mac1609_4 	TooLittleTime 	0
scalar MyScenario.node[75].nic.mac1609_4 	TimesIntoBackoff 	0
scalar MyScenario.node[75].nic.mac1609_4 	SlotsBackoff 	0
scalar MyScenario.node[75].nic.mac1609_4 	NumInternalContention 	0
scalar MyScenario.node[75].nic.mac1609_4 	totalBusyTime 	0
scalar MyScenario.node[75].veinsmobility 	startTime 	1
scalar MyScenario.node[75].veinsmobility 	totalTime 	147
scalar MyScenario.node[75].veinsmobility 	stopTime 	149
scalar MyScenario.node[75].veinsmobility 	minSpeed 	0.05613477775858
scalar MyScenario.node[75].veinsmobility 	maxSpeed 	13.895909928833
scalar MyScenario.node[75].veinsmobility 	totalDistance 	1665.819809455
scalar MyScenario.node[75].veinsmobility 	totalCO2Emission 	461.00045940536
